xflr5 v6.10.03

 Calculated polar for: E423

 1 1 Reynolds number fixed          Mach number fixed         

 xtrf =   0.500 (top)        0.500 (bottom)
 Mach =   0.080     Re =     0.240 e 6     Ncrit =   9.000

  alpha     CL        CD       CDp       Cm    Top Xtr Bot Xtr   Cpmin    Chinge    XCp    
 ------- -------- --------- --------- -------- ------- ------- -------- --------- ---------
  -5.000   0.4155   0.06613   0.06012  -0.1547  0.5000  0.0492  -1.1940   0.0000   0.6337
  -4.000   0.4676   0.05222   0.04628  -0.1646  0.5000  0.0508  -1.3991   0.0000   0.6097
  -3.000   0.5689   0.03763   0.03151  -0.1800  0.5000  0.0438  -1.5480   0.0000   0.5707
  -2.000   0.7983   0.01803   0.00995  -0.2201  0.5000  0.0692  -1.7279   0.0000   0.5273
  -1.000   0.9138   0.01666   0.00813  -0.2211  0.5000  0.1036  -1.2989   0.0000   0.4914
   0.000   1.0207   0.01653   0.00788  -0.2202  0.5000  0.1426  -1.3822   0.0000   0.4632
   1.000   1.1275   0.01630   0.00760  -0.2195  0.5000  0.1852  -1.4713   0.0000   0.4404
   2.000   1.2340   0.01613   0.00744  -0.2189  0.5000  0.2295  -1.5601   0.0000   0.4214
   3.000   1.3377   0.01638   0.00783  -0.2178  0.5000  0.2835  -1.6551   0.0000   0.4051
   4.000   1.4419   0.01662   0.00866  -0.2172  0.5000  0.5000  -1.7538   0.0000   0.3912
   5.000   1.5392   0.01764   0.00966  -0.2152  0.5000  0.5000  -1.8554   0.0000   0.3785
   6.000   1.6332   0.01891   0.01108  -0.2128  0.5000  0.5000  -1.9756   0.0000   0.3672
   7.000   1.7242   0.02055   0.01299  -0.2103  0.5000  0.5000  -2.1169   0.0000   0.3570
   8.000   1.8105   0.02290   0.01572  -0.2076  0.5000  0.5000  -2.2799   0.0000   0.3478
   9.000   1.8913   0.02663   0.01987  -0.2049  0.4930  0.5000  -2.4685   0.0000   0.3395
  10.000   1.8966   0.02967   0.02334  -0.1890  0.4759  0.5000  -2.5995   0.0000   0.3287
  11.000   1.9766   0.03056   0.02422  -0.1849  0.4483  0.5000  -2.8626   0.0000   0.3203
  12.000   1.9506   0.03758   0.03169  -0.1696  0.4229  0.5000  -2.9818   0.0000   0.3113
  13.000   1.9508   0.04528   0.03961  -0.1604  0.3901  0.5000  -3.1640   0.0000   0.3040
  14.000   1.9396   0.05548   0.04991  -0.1527  0.3499  0.5000  -3.3500   0.0000   0.2979
  15.000   1.9160   0.06816   0.06268  -0.1467  0.3062  0.5000  -3.5172   0.0000   0.2931
  16.000   1.8898   0.08208   0.07664  -0.1426  0.2627  0.5000  -3.6728   0.0000   0.2892
  17.000   1.8670   0.09651   0.09130  -0.1406  0.2242  0.5000  -3.8699   0.0000   0.2863


