xflr5 v6.10.03

 Calculated polar for: E423

 1 1 Reynolds number fixed          Mach number fixed         

 xtrf =   0.500 (top)        0.500 (bottom)
 Mach =   0.000     Re =     0.080 e 6     Ncrit =   9.000

  alpha     CL        CD       CDp       Cm    Top Xtr Bot Xtr   Cpmin    Chinge    XCp    
 ------- -------- --------- --------- -------- ------- ------- -------- --------- ---------
  -5.000   0.3082   0.08610   0.07806  -0.1337  0.5000  0.1068  -1.1730   0.0000   0.6968
  -4.000   0.3116   0.06968   0.06192  -0.1178  0.5000  0.1196  -1.0642   0.0000   0.6378
  -3.000   0.4229   0.06738   0.05939  -0.1402  0.5000  0.1438  -1.0867   0.0000   0.5861
   0.000   0.8355   0.03092   0.02113  -0.1871  0.5000  0.1995  -1.2553   0.0000   0.4714
   1.000   0.9606   0.02844   0.01799  -0.1918  0.5000  0.2537  -1.3457   0.0000   0.4454
   2.000   1.0683   0.02785   0.01701  -0.1927  0.5000  0.3097  -1.4267   0.0000   0.4244
   3.000   1.1601   0.02856   0.01755  -0.1907  0.5000  0.3824  -1.5059   0.0000   0.4066
   4.000   1.2434   0.03006   0.01930  -0.1876  0.5000  0.5000  -1.5796   0.0000   0.3914
   5.000   1.3040   0.03385   0.02304  -0.1820  0.5000  0.5000  -1.6413   0.0000   0.3782
   6.000   1.3328   0.04082   0.03028  -0.1745  0.5000  0.5000  -1.6812   0.0000   0.3678
   7.000   1.1659   0.07835   0.06889  -0.1663  0.5000  0.5000  -1.4592   0.0000   0.3785
   8.000   1.0816   0.10895   0.10005  -0.1666  0.5000  0.5000  -1.3146   0.0000   0.3893
   9.000   1.0505   0.13078   0.12222  -0.1680  0.5000  0.5000  -1.2459   0.0000   0.3942
  10.000   1.0602   0.14051   0.13207  -0.1662  0.4627  0.5000  -1.2599   0.0000   0.3891
  11.000   1.0983   0.14941   0.14109  -0.1655  0.4308  0.5000  -1.3293   0.0000   0.3810
  12.000   1.2329   0.14746   0.13923  -0.1613  0.4070  0.5000  -1.6009   0.0000   0.3581
  13.000   1.2048   0.16263   0.15469  -0.1638  0.3702  0.5000  -1.5589   0.0000   0.3615
  14.000   1.2093   0.17498   0.16730  -0.1666  0.3382  0.5000  -1.5805   0.0000   0.3614
  15.000   1.2684   0.18071   0.17331  -0.1655  0.3111  0.5000  -1.7496   0.0000   0.3514
  16.000   1.3116   0.18758   0.18051  -0.1658  0.2842  0.5000  -1.9080   0.0000   0.3447
  17.000   1.2842   0.20957   0.20277  -0.1744  0.2543  0.5000  -1.8282   0.0000   0.3525


