xflr5 v6.10.03

 Calculated polar for: E423

 1 1 Reynolds number fixed          Mach number fixed         

 xtrf =   0.500 (top)        0.500 (bottom)
 Mach =   0.000     Re =     0.120 e 6     Ncrit =   9.000

  alpha     CL        CD       CDp       Cm    Top Xtr Bot Xtr   Cpmin    Chinge    XCp    
 ------- -------- --------- --------- -------- ------- ------- -------- --------- ---------
  -5.000   0.3560   0.07043   0.06322  -0.1445  0.5000  0.0782  -1.2267   0.0000   0.6684
  -4.000   0.3937   0.06166   0.05457  -0.1386  0.5000  0.0867  -1.0844   0.0000   0.6105
  -3.000   0.5194   0.05611   0.04877  -0.1622  0.5000  0.1067  -1.1121   0.0000   0.5664
  -2.000   0.6365   0.03824   0.03061  -0.1796  0.5000  0.1121  -1.1911   0.0000   0.5338
  -1.000   0.8241   0.02597   0.01707  -0.2032  0.5000  0.1253  -1.2415   0.0000   0.4960
   0.000   0.9470   0.02339   0.01379  -0.2069  0.5000  0.1746  -1.3289   0.0000   0.4660
   1.000   1.0572   0.02232   0.01238  -0.2075  0.5000  0.2277  -1.4161   0.0000   0.4421
   2.000   1.1623   0.02186   0.01175  -0.2071  0.5000  0.2810  -1.5004   0.0000   0.4222
   3.000   1.2634   0.02208   0.01197  -0.2060  0.5000  0.3453  -1.5903   0.0000   0.4054
   4.000   1.3599   0.02260   0.01282  -0.2042  0.5000  0.5000  -1.6799   0.0000   0.3907
   5.000   1.4443   0.02434   0.01453  -0.2004  0.5000  0.5000  -1.7683   0.0000   0.3775
   6.000   1.5211   0.02661   0.01698  -0.1959  0.5000  0.5000  -1.8654   0.0000   0.3657
   7.000   1.5833   0.02992   0.02062  -0.1899  0.5000  0.5000  -1.9688   0.0000   0.3550
   8.000   1.6103   0.03633   0.02755  -0.1809  0.5000  0.5000  -2.0504   0.0000   0.3455
  11.000   1.3097   0.11193   0.10466  -0.1568  0.4105  0.5000  -1.7509   0.0000   0.3477
  12.000   1.3071   0.12490   0.11787  -0.1557  0.3738  0.5000  -1.7894   0.0000   0.3451
  13.000   1.3795   0.12623   0.11943  -0.1525  0.3552  0.5000  -1.9858   0.0000   0.3339
  14.000   1.4170   0.13227   0.12576  -0.1512  0.3266  0.5000  -2.1423   0.0000   0.3276
  16.000   1.5473   0.13304   0.12717  -0.1458  0.2838  0.5000  -2.6837   0.0000   0.3093
  17.000   1.5341   0.14709   0.14149  -0.1489  0.2485  0.5000  -2.7864   0.0000   0.3097


