xflr5 v6.10.03

 Calculated polar for: E423

 1 1 Reynolds number fixed          Mach number fixed         

 xtrf =   0.500 (top)        0.500 (bottom)
 Mach =   0.000     Re =     0.200 e 6     Ncrit =   9.000

  alpha     CL        CD       CDp       Cm    Top Xtr Bot Xtr   Cpmin    Chinge    XCp    
 ------- -------- --------- --------- -------- ------- ------- -------- --------- ---------
  -5.000   0.3901   0.06299   0.05671  -0.1540  0.5000  0.0517  -1.3539   0.0000   0.6566
  -4.000   0.4358   0.05570   0.04951  -0.1504  0.5000  0.0595  -1.1479   0.0000   0.6030
  -2.000   0.7775   0.02101   0.01294  -0.2151  0.5000  0.0732  -1.6434   0.0000   0.5282
  -1.000   0.8982   0.01868   0.00993  -0.2179  0.5000  0.1064  -1.2853   0.0000   0.4920
   0.000   1.0106   0.01742   0.00836  -0.2187  0.5000  0.1532  -1.3705   0.0000   0.4639
   1.000   1.1160   0.01724   0.00812  -0.2178  0.5000  0.1973  -1.4580   0.0000   0.4409
   2.000   1.2188   0.01742   0.00831  -0.2164  0.5000  0.2364  -1.5439   0.0000   0.4216
   3.000   1.3212   0.01757   0.00859  -0.2153  0.5000  0.2924  -1.6371   0.0000   0.4052
   4.000   1.4246   0.01777   0.00933  -0.2147  0.5000  0.5000  -1.7344   0.0000   0.3912
   5.000   1.5198   0.01889   0.01043  -0.2124  0.5000  0.5000  -1.8336   0.0000   0.3785
   6.000   1.6107   0.02027   0.01198  -0.2097  0.5000  0.5000  -1.9495   0.0000   0.3671
   7.000   1.6973   0.02206   0.01404  -0.2066  0.5000  0.5000  -2.0848   0.0000   0.3568
   8.000   1.7780   0.02457   0.01695  -0.2032  0.5000  0.5000  -2.2391   0.0000   0.3474
   9.000   1.8348   0.02909   0.02204  -0.1970  0.5000  0.5000  -2.3923   0.0000   0.3386
  10.000   1.8194   0.03619   0.02965  -0.1812  0.4839  0.5000  -2.4809   0.0000   0.3287
  11.000   1.8711   0.03807   0.03177  -0.1741  0.4607  0.5000  -2.6846   0.0000   0.3199
  12.000   1.8550   0.04653   0.04056  -0.1628  0.4321  0.5000  -2.7992   0.0000   0.3122
  13.000   1.9346   0.04703   0.04105  -0.1595  0.4016  0.5000  -3.1212   0.0000   0.3044
  14.000   1.9420   0.05456   0.04862  -0.1523  0.3610  0.5000  -3.3464   0.0000   0.2978
  15.000   1.9217   0.06613   0.06031  -0.1458  0.3189  0.5000  -3.5204   0.0000   0.2925
  16.000   1.8861   0.08084   0.07515  -0.1413  0.2762  0.5000  -3.6507   0.0000   0.2888
  17.000   1.8706   0.09392   0.08848  -0.1389  0.2367  0.5000  -3.8692   0.0000   0.2854


