xflr5 v6.10.03

 Calculated polar for: E423

 1 1 Reynolds number fixed          Mach number fixed         

 xtrf =   0.500 (top)        0.500 (bottom)
 Mach =   0.080     Re =     0.500 e 6     Ncrit =   9.000

  alpha     CL        CD       CDp       Cm    Top Xtr Bot Xtr   Cpmin    Chinge    XCp    
 ------- -------- --------- --------- -------- ------- ------- -------- --------- ---------
  -5.000   0.4333   0.05944   0.05456  -0.1582  0.5000  0.0287  -1.2730   0.0000   0.6263
  -4.000   0.4702   0.04400   0.03918  -0.1676  0.5000  0.0236  -1.7500   0.0000   0.6143
  -3.000   0.7252   0.01304   0.00580  -0.2279  0.5000  0.0329  -2.5876   0.0000   0.5684
  -2.000   0.8379   0.01235   0.00491  -0.2280  0.5000  0.0523  -1.8297   0.0000   0.5237
  -1.000   0.9495   0.01191   0.00448  -0.2279  0.5000  0.0936  -1.3210   0.0000   0.4895
   0.000   1.0579   0.01192   0.00451  -0.2271  0.5000  0.1297  -1.4069   0.0000   0.4623
   1.000   1.1651   0.01206   0.00470  -0.2263  0.5000  0.1642  -1.4978   0.0000   0.4400
   2.000   1.2702   0.01242   0.00512  -0.2251  0.5000  0.1873  -1.5875   0.0000   0.4212
   3.000   1.3762   0.01263   0.00547  -0.2244  0.5000  0.2352  -1.6859   0.0000   0.4053
   4.000   1.4813   0.01297   0.00611  -0.2237  0.5000  0.3286  -1.7868   0.0000   0.3915
   5.000   1.5853   0.01346   0.00700  -0.2230  0.5000  0.5000  -1.8945   0.0000   0.3794
   6.000   1.6879   0.01435   0.00803  -0.2221  0.5000  0.5000  -2.0258   0.0000   0.3685
   7.000   1.7940   0.01564   0.00948  -0.2224  0.4930  0.5000  -2.1860   0.0000   0.3589
   8.000   1.8618   0.01641   0.01049  -0.2148  0.4829  0.5000  -2.3456   0.0000   0.3484
   9.000   1.9219   0.01783   0.01195  -0.2065  0.4606  0.5000  -2.5257   0.0000   0.3384
  10.000   1.9809   0.01979   0.01414  -0.1990  0.4394  0.5000  -2.7323   0.0000   0.3292
  11.000   2.0112   0.02330   0.01765  -0.1880  0.4067  0.5000  -2.9331   0.0000   0.3200
  12.000   2.0367   0.02810   0.02263  -0.1783  0.3768  0.5000  -3.1571   0.0000   0.3117
  13.000   2.0343   0.03608   0.03070  -0.1679  0.3377  0.5000  -3.3540   0.0000   0.3043
  14.000   2.0000   0.04860   0.04323  -0.1581  0.2914  0.5000  -3.5074   0.0000   0.2981
  15.000   1.9585   0.06384   0.05849  -0.1512  0.2478  0.5000  -3.6372   0.0000   0.2936
  16.000   1.9206   0.07958   0.07437  -0.1470  0.2076  0.5000  -3.7733   0.0000   0.2901
  17.000   1.8993   0.09433   0.08924  -0.1451  0.1776  0.5000  -3.9917   0.0000   0.2872


