xflr5 v6.10.03

 Calculated polar for: E423

 1 1 Reynolds number fixed          Mach number fixed         

 xtrf =   0.500 (top)        0.500 (bottom)
 Mach =   0.080     Re =     0.100 e 6     Ncrit =   9.000

  alpha     CL        CD       CDp       Cm    Top Xtr Bot Xtr   Cpmin    Chinge    XCp    
 ------- -------- --------- --------- -------- ------- ------- -------- --------- ---------
  -5.000   0.3373   0.07247   0.06487  -0.1297  0.5000  0.0917  -1.0369   0.0000   0.6475
  -4.000   0.4047   0.07073   0.06317  -0.1460  0.5000  0.1064  -1.1319   0.0000   0.6187
  -3.000   0.4243   0.05638   0.04907  -0.1386  0.5000  0.1157  -1.0831   0.0000   0.5818
  -2.000   0.5680   0.04603   0.03836  -0.1625  0.5000  0.1487  -1.1061   0.0000   0.5377
  -1.000   0.6869   0.03760   0.02969  -0.1711  0.5000  0.1989  -1.1790   0.0000   0.4986
   0.000   0.9043   0.02679   0.01708  -0.1989  0.5000  0.1815  -1.3049   0.0000   0.4675
   1.000   1.0181   0.02534   0.01517  -0.2006  0.5000  0.2352  -1.3924   0.0000   0.4427
   2.000   1.1260   0.02457   0.01413  -0.2011  0.5000  0.2897  -1.4768   0.0000   0.4226
   3.000   1.2258   0.02475   0.01422  -0.2000  0.5000  0.3580  -1.5642   0.0000   0.4054
   4.000   1.3176   0.02553   0.01534  -0.1976  0.5000  0.5000  -1.6485   0.0000   0.3905
   5.000   1.3943   0.02790   0.01765  -0.1929  0.5000  0.5000  -1.7287   0.0000   0.3771
   6.000   1.4549   0.03138   0.02134  -0.1868  0.5000  0.5000  -1.8075   0.0000   0.3653
   7.000   1.4823   0.03793   0.02830  -0.1782  0.5000  0.5000  -1.8672   0.0000   0.3553
   9.000   1.0971   0.11910   0.11118  -0.1649  0.4622  0.5000  -1.3412   0.0000   0.3838
  10.000   1.2451   0.11506   0.10706  -0.1613  0.4494  0.5000  -1.5934   0.0000   0.3602
  11.000   1.2238   0.12886   0.12111  -0.1602  0.4115  0.5000  -1.5828   0.0000   0.3597
  12.000   1.2242   0.14159   0.13408  -0.1602  0.3754  0.5000  -1.6068   0.0000   0.3578
  13.000   1.3192   0.14080   0.13349  -0.1560  0.3583  0.5000  -1.8400   0.0000   0.3423
  14.000   1.3358   0.15042   0.14341  -0.1566  0.3254  0.5000  -1.9283   0.0000   0.3391
  15.000   1.3319   0.16413   0.15739  -0.1598  0.2902  0.5000  -1.9552   0.0000   0.3398
  16.000   1.3314   0.17964   0.17318  -0.1643  0.2611  0.5000  -1.9963   0.0000   0.3411
  17.000   1.4291   0.17243   0.16636  -0.1580  0.2433  0.5000  -2.3931   0.0000   0.3247


