xflr5 v6.10.03

 Calculated polar for: E423

 1 1 Reynolds number fixed          Mach number fixed         

 xtrf =   0.500 (top)        0.500 (bottom)
 Mach =   0.000     Re =     0.100 e 6     Ncrit =   9.000

  alpha     CL        CD       CDp       Cm    Top Xtr Bot Xtr   Cpmin    Chinge    XCp    
 ------- -------- --------- --------- -------- ------- ------- -------- --------- ---------
  -5.000   0.3362   0.07229   0.06468  -0.1297  0.5000  0.0917  -1.0385   0.0000   0.6488
  -4.000   0.4062   0.07044   0.06285  -0.1466  0.5000  0.1065  -1.1330   0.0000   0.6188
  -3.000   0.4257   0.05607   0.04874  -0.1391  0.5000  0.1160  -1.0806   0.0000   0.5817
  -2.000   0.5687   0.04561   0.03793  -0.1626  0.5000  0.1491  -1.1027   0.0000   0.5376
  -1.000   0.6899   0.03725   0.02930  -0.1718  0.5000  0.1992  -1.1766   0.0000   0.4985
   0.000   0.9053   0.02662   0.01685  -0.1990  0.5000  0.1826  -1.3014   0.0000   0.4674
   1.000   1.0179   0.02523   0.01502  -0.2005  0.5000  0.2360  -1.3882   0.0000   0.4427
   2.000   1.1255   0.02441   0.01395  -0.2011  0.5000  0.2909  -1.4722   0.0000   0.4227
   3.000   1.2261   0.02446   0.01390  -0.2002  0.5000  0.3619  -1.5601   0.0000   0.4056
   4.000   1.3181   0.02524   0.01499  -0.1978  0.5000  0.5000  -1.6446   0.0000   0.3906
   5.000   1.3962   0.02748   0.01718  -0.1934  0.5000  0.5000  -1.7259   0.0000   0.3773
   6.000   1.4595   0.03071   0.02061  -0.1875  0.5000  0.5000  -1.8074   0.0000   0.3654
   7.000   1.4973   0.03624   0.02653  -0.1798  0.5000  0.5000  -1.8789   0.0000   0.3551
  11.000   1.2188   0.12883   0.12108  -0.1600  0.4122  0.5000  -1.5729   0.0000   0.3601
  12.000   1.2223   0.14118   0.13367  -0.1598  0.3765  0.5000  -1.6028   0.0000   0.3577
  14.000   1.3317   0.15027   0.14326  -0.1564  0.3262  0.5000  -1.9185   0.0000   0.3394
  15.000   1.3286   0.16385   0.15712  -0.1596  0.2913  0.5000  -1.9472   0.0000   0.3399
  17.000   1.4244   0.17234   0.16626  -0.1580  0.2442  0.5000  -2.3784   0.0000   0.3250


