xflr5 v6.10.03

 Calculated polar for: E423

 1 1 Reynolds number fixed          Mach number fixed         

 xtrf =   0.500 (top)        0.500 (bottom)
 Mach =   0.000     Re =     0.300 e 6     Ncrit =   9.000

  alpha     CL        CD       CDp       Cm    Top Xtr Bot Xtr   Cpmin    Chinge    XCp    
 ------- -------- --------- --------- -------- ------- ------- -------- --------- ---------
  -4.000   0.4769   0.05442   0.04884  -0.1618  0.5000  0.0491  -1.2232   0.0000   0.5967
  -3.000   0.6908   0.01814   0.01085  -0.2200  0.5000  0.0416  -2.3610   0.0000   0.5725
  -2.000   0.8134   0.01544   0.00742  -0.2232  0.5000  0.0654  -1.7731   0.0000   0.5260
  -1.000   0.9246   0.01477   0.00653  -0.2232  0.5000  0.1008  -1.3012   0.0000   0.4908
   0.000   1.0314   0.01475   0.00646  -0.2222  0.5000  0.1397  -1.3848   0.0000   0.4630
   1.000   1.1380   0.01467   0.00638  -0.2215  0.5000  0.1799  -1.4741   0.0000   0.4404
   2.000   1.2442   0.01467   0.00643  -0.2208  0.5000  0.2199  -1.5631   0.0000   0.4215
   3.000   1.3482   0.01495   0.00686  -0.2199  0.5000  0.2717  -1.6587   0.0000   0.4053
   4.000   1.4514   0.01529   0.00761  -0.2191  0.5000  0.4121  -1.7570   0.0000   0.3914
   5.000   1.5515   0.01604   0.00856  -0.2177  0.5000  0.5000  -1.8608   0.0000   0.3790
   6.000   1.6487   0.01711   0.00979  -0.2160  0.5000  0.5000  -1.9848   0.0000   0.3679
   7.000   1.7445   0.01850   0.01142  -0.2144  0.5000  0.5000  -2.1319   0.0000   0.3579
   8.000   1.8386   0.02048   0.01375  -0.2130  0.5000  0.5000  -2.3071   0.0000   0.3490
   9.000   1.9031   0.02250   0.01610  -0.2062  0.4873  0.5000  -2.4863   0.0000   0.3394
  10.000   1.9461   0.02420   0.01805  -0.1958  0.4667  0.5000  -2.6688   0.0000   0.3295
  11.000   1.9865   0.02702   0.02102  -0.1863  0.4417  0.5000  -2.8796   0.0000   0.3205
  12.000   2.0029   0.03161   0.02572  -0.1753  0.4114  0.5000  -3.0813   0.0000   0.3118
  13.000   1.9986   0.03917   0.03352  -0.1647  0.3772  0.5000  -3.2621   0.0000   0.3043
  14.000   1.9811   0.04971   0.04420  -0.1559  0.3371  0.5000  -3.4494   0.0000   0.2980
  15.000   1.9422   0.06400   0.05848  -0.1488  0.2906  0.5000  -3.5830   0.0000   0.2931
  16.000   1.9070   0.07894   0.07358  -0.1443  0.2485  0.5000  -3.7190   0.0000   0.2894
  17.000   1.8756   0.09460   0.08929  -0.1421  0.2094  0.5000  -3.9016   0.0000   0.2867


