xflr5 v6.10.03

 Calculated polar for: E423

 1 1 Reynolds number fixed          Mach number fixed         

 xtrf =   0.500 (top)        0.500 (bottom)
 Mach =   0.080     Re =     0.420 e 6     Ncrit =   9.000

  alpha     CL        CD       CDp       Cm    Top Xtr Bot Xtr   Cpmin    Chinge    XCp    
 ------- -------- --------- --------- -------- ------- ------- -------- --------- ---------
  -3.000   0.7174   0.01404   0.00666  -0.2264  0.5000  0.0364  -2.5591   0.0000   0.5697
  -2.000   0.8320   0.01300   0.00530  -0.2270  0.5000  0.0592  -1.8359   0.0000   0.5244
  -1.000   0.9421   0.01275   0.00504  -0.2265  0.5000  0.0956  -1.3164   0.0000   0.4899
   0.000   1.0501   0.01276   0.00506  -0.2257  0.5000  0.1330  -1.4017   0.0000   0.4625
   1.000   1.1572   0.01285   0.00520  -0.2248  0.5000  0.1690  -1.4923   0.0000   0.4400
   2.000   1.2634   0.01305   0.00543  -0.2239  0.5000  0.2020  -1.5823   0.0000   0.4212
   3.000   1.3679   0.01340   0.00592  -0.2229  0.5000  0.2416  -1.6794   0.0000   0.4052
   4.000   1.4727   0.01374   0.00660  -0.2222  0.5000  0.3456  -1.7798   0.0000   0.3914
   5.000   1.5759   0.01429   0.00751  -0.2214  0.5000  0.5000  -1.8866   0.0000   0.3792
   6.000   1.6766   0.01524   0.00861  -0.2202  0.5000  0.5000  -2.0157   0.0000   0.3682
   7.000   1.7786   0.01650   0.01010  -0.2196  0.5000  0.5000  -2.1709   0.0000   0.3584
   8.000   1.8603   0.01782   0.01164  -0.2151  0.4889  0.5000  -2.3413   0.0000   0.3487
   9.000   1.9199   0.01902   0.01305  -0.2067  0.4714  0.5000  -2.5203   0.0000   0.3386
  10.000   1.9742   0.02110   0.01521  -0.1982  0.4459  0.5000  -2.7196   0.0000   0.3292
  11.000   2.0102   0.02410   0.01842  -0.1880  0.4211  0.5000  -2.9291   0.0000   0.3201
  12.000   2.0293   0.02916   0.02365  -0.1775  0.3898  0.5000  -3.1407   0.0000   0.3117
  13.000   2.0250   0.03712   0.03170  -0.1669  0.3526  0.5000  -3.3302   0.0000   0.3041
  14.000   1.9991   0.04875   0.04337  -0.1576  0.3069  0.5000  -3.5024   0.0000   0.2979
  15.000   1.9604   0.06353   0.05820  -0.1507  0.2638  0.5000  -3.6390   0.0000   0.2933
  16.000   1.9229   0.07902   0.07383  -0.1463  0.2227  0.5000  -3.7767   0.0000   0.2897
  17.000   1.8962   0.09435   0.08928  -0.1443  0.1892  0.5000  -3.9783   0.0000   0.2869


