xflr5 v6.10.03

 Calculated polar for: E423

 1 1 Reynolds number fixed          Mach number fixed         

 xtrf =   0.500 (top)        0.500 (bottom)
 Mach =   0.080     Re =     0.400 e 6     Ncrit =   9.000

  alpha     CL        CD       CDp       Cm    Top Xtr Bot Xtr   Cpmin    Chinge    XCp    
 ------- -------- --------- --------- -------- ------- ------- -------- --------- ---------
  -5.000   0.4253   0.06037   0.05516  -0.1571  0.5000  0.0289  -1.3252   0.0000   0.6308
  -3.000   0.7145   0.01447   0.00707  -0.2258  0.5000  0.0370  -2.5409   0.0000   0.5701
  -2.000   0.8298   0.01328   0.00553  -0.2266  0.5000  0.0600  -1.8323   0.0000   0.5246
  -1.000   0.9400   0.01300   0.00522  -0.2261  0.5000  0.0962  -1.3151   0.0000   0.4900
   0.000   1.0479   0.01302   0.00524  -0.2253  0.5000  0.1339  -1.4002   0.0000   0.4625
   1.000   1.1550   0.01309   0.00536  -0.2244  0.5000  0.1703  -1.4907   0.0000   0.4401
   2.000   1.2613   0.01327   0.00556  -0.2236  0.5000  0.2052  -1.5807   0.0000   0.4213
   3.000   1.3658   0.01361   0.00604  -0.2225  0.5000  0.2472  -1.6777   0.0000   0.4052
   4.000   1.4703   0.01397   0.00674  -0.2218  0.5000  0.3493  -1.7778   0.0000   0.3913
   5.000   1.5731   0.01454   0.00767  -0.2209  0.5000  0.5000  -1.8843   0.0000   0.3791
   6.000   1.6733   0.01551   0.00878  -0.2196  0.5000  0.5000  -2.0127   0.0000   0.3681
   7.000   1.7746   0.01679   0.01030  -0.2189  0.5000  0.5000  -2.1669   0.0000   0.3583
   8.000   1.8609   0.01826   0.01201  -0.2154  0.4902  0.5000  -2.3411   0.0000   0.3488
   9.000   1.9178   0.01947   0.01347  -0.2065  0.4739  0.5000  -2.5167   0.0000   0.3386
  10.000   1.9740   0.02147   0.01550  -0.1983  0.4471  0.5000  -2.7184   0.0000   0.3293
  11.000   2.0081   0.02448   0.01877  -0.1878  0.4242  0.5000  -2.9249   0.0000   0.3201
  12.000   2.0254   0.02959   0.02404  -0.1770  0.3931  0.5000  -3.1327   0.0000   0.3116
  13.000   2.0200   0.03759   0.03213  -0.1664  0.3555  0.5000  -3.3182   0.0000   0.3041
  14.000   1.9950   0.04917   0.04377  -0.1572  0.3108  0.5000  -3.4920   0.0000   0.2979
  15.000   1.9574   0.06381   0.05847  -0.1504  0.2675  0.5000  -3.6309   0.0000   0.2932
  16.000   1.9212   0.07914   0.07395  -0.1460  0.2265  0.5000  -3.7703   0.0000   0.2897
  17.000   1.8935   0.09457   0.08950  -0.1440  0.1920  0.5000  -3.9686   0.0000   0.2869


