xflr5 v6.10.03

 Calculated polar for: E423

 1 1 Reynolds number fixed          Mach number fixed         

 xtrf =   0.500 (top)        0.500 (bottom)
 Mach =   0.080     Re =     0.200 e 6     Ncrit =   9.000

  alpha     CL        CD       CDp       Cm    Top Xtr Bot Xtr   Cpmin    Chinge    XCp    
 ------- -------- --------- --------- -------- ------- ------- -------- --------- ---------
  -5.000   0.3912   0.06326   0.05698  -0.1539  0.5000  0.0517  -1.3506   0.0000   0.6554
  -4.000   0.4361   0.05593   0.04975  -0.1501  0.5000  0.0594  -1.1461   0.0000   0.6022
  -3.000   0.5582   0.03975   0.03334  -0.1775  0.5000  0.0543  -1.4674   0.0000   0.5723
  -2.000   0.7776   0.02112   0.01310  -0.2152  0.5000  0.0726  -1.6545   0.0000   0.5283
  -1.000   0.8995   0.01872   0.01000  -0.2182  0.5000  0.1061  -1.2903   0.0000   0.4920
   0.000   1.0121   0.01751   0.00846  -0.2189  0.5000  0.1521  -1.3759   0.0000   0.4638
   1.000   1.1179   0.01734   0.00824  -0.2180  0.5000  0.1961  -1.4639   0.0000   0.4407
   2.000   1.2212   0.01749   0.00840  -0.2166  0.5000  0.2360  -1.5504   0.0000   0.4214
   3.000   1.3239   0.01768   0.00871  -0.2155  0.5000  0.2914  -1.6440   0.0000   0.4050
   4.000   1.4275   0.01790   0.00949  -0.2148  0.5000  0.5000  -1.7417   0.0000   0.3910
   5.000   1.5229   0.01904   0.01061  -0.2124  0.5000  0.5000  -1.8413   0.0000   0.3782
   6.000   1.6134   0.02048   0.01221  -0.2096  0.5000  0.5000  -1.9571   0.0000   0.3668
   7.000   1.6997   0.02235   0.01436  -0.2064  0.5000  0.5000  -2.0922   0.0000   0.3565
   8.000   1.7788   0.02503   0.01745  -0.2026  0.5000  0.5000  -2.2450   0.0000   0.3471
   9.000   1.8277   0.03013   0.02314  -0.1954  0.5000  0.5000  -2.3880   0.0000   0.3381
  10.000   1.7814   0.03923   0.03277  -0.1766  0.4803  0.5000  -2.4325   0.0000   0.3282
  11.000   1.8700   0.03878   0.03247  -0.1734  0.4587  0.5000  -2.6874   0.0000   0.3195
  12.000   1.8309   0.04959   0.04366  -0.1608  0.4282  0.5000  -2.7634   0.0000   0.3122
  13.000   1.9060   0.05061   0.04472  -0.1572  0.3989  0.5000  -3.0699   0.0000   0.3044
  14.000   1.9226   0.05765   0.05181  -0.1510  0.3592  0.5000  -3.3043   0.0000   0.2978
  15.000   1.9032   0.06947   0.06374  -0.1451  0.3171  0.5000  -3.4797   0.0000   0.2928
  16.000   1.8757   0.08352   0.07791  -0.1412  0.2741  0.5000  -3.6297   0.0000   0.2891
  17.000   1.8598   0.09681   0.09144  -0.1391  0.2350  0.5000  -3.8385   0.0000   0.2858


