xflr5 v6.10.03

 Calculated polar for: E423

 1 1 Reynolds number fixed          Mach number fixed         

 xtrf =   0.500 (top)        0.500 (bottom)
 Mach =   0.000     Re =     0.440 e 6     Ncrit =   9.000

  alpha     CL        CD       CDp       Cm    Top Xtr Bot Xtr   Cpmin    Chinge    XCp    
 ------- -------- --------- --------- -------- ------- ------- -------- --------- ---------
  -5.000   0.4274   0.05975   0.05468  -0.1575  0.5000  0.0289  -1.3059   0.0000   0.6298
  -4.000   0.4676   0.04478   0.03978  -0.1664  0.5000  0.0258  -1.7146   0.0000   0.6139
  -3.000   0.7194   0.01363   0.00625  -0.2266  0.5000  0.0366  -2.5519   0.0000   0.5690
  -2.000   0.8328   0.01271   0.00506  -0.2270  0.5000  0.0596  -1.8219   0.0000   0.5241
  -1.000   0.9422   0.01248   0.00484  -0.2265  0.5000  0.0961  -1.3121   0.0000   0.4898
   0.000   1.0498   0.01249   0.00486  -0.2257  0.5000  0.1330  -1.3970   0.0000   0.4625
   1.000   1.1566   0.01259   0.00501  -0.2249  0.5000  0.1686  -1.4871   0.0000   0.4402
   2.000   1.2622   0.01280   0.00525  -0.2239  0.5000  0.1997  -1.5766   0.0000   0.4214
   3.000   1.3663   0.01314   0.00573  -0.2229  0.5000  0.2385  -1.6732   0.0000   0.4054
   4.000   1.4710   0.01344   0.00638  -0.2223  0.5000  0.3448  -1.7732   0.0000   0.3916
   5.000   1.5740   0.01396   0.00726  -0.2215  0.5000  0.5000  -1.8796   0.0000   0.3795
   6.000   1.6746   0.01487   0.00830  -0.2204  0.5000  0.5000  -2.0085   0.0000   0.3685
   7.000   1.7769   0.01606   0.00972  -0.2200  0.5000  0.5000  -2.1637   0.0000   0.3588
   8.000   1.8572   0.01724   0.01112  -0.2154  0.4883  0.5000  -2.3332   0.0000   0.3490
   9.000   1.9188   0.01839   0.01245  -0.2074  0.4703  0.5000  -2.5146   0.0000   0.3390
  10.000   1.9729   0.02042   0.01457  -0.1990  0.4454  0.5000  -2.7139   0.0000   0.3297
  11.000   2.0110   0.02328   0.01761  -0.1891  0.4203  0.5000  -2.9254   0.0000   0.3206
  12.000   2.0329   0.02803   0.02253  -0.1787  0.3888  0.5000  -3.1433   0.0000   0.3122
  13.000   2.0330   0.03548   0.03006  -0.1683  0.3514  0.5000  -3.3458   0.0000   0.3046
  14.000   2.0066   0.04687   0.04149  -0.1586  0.3059  0.5000  -3.5160   0.0000   0.2982
  15.000   1.9663   0.06168   0.05634  -0.1514  0.2627  0.5000  -3.6481   0.0000   0.2935
  16.000   1.9273   0.07726   0.07205  -0.1468  0.2215  0.5000  -3.7875   0.0000   0.2899
  17.000   1.9005   0.09251   0.08743  -0.1446  0.1888  0.5000  -3.9877   0.0000   0.2870


