xflr5 v6.10.03

 Calculated polar for: E423

 1 1 Reynolds number fixed          Mach number fixed         

 xtrf =   0.500 (top)        0.500 (bottom)
 Mach =   0.000     Re =     0.360 e 6     Ncrit =   9.000

  alpha     CL        CD       CDp       Cm    Top Xtr Bot Xtr   Cpmin    Chinge    XCp    
 ------- -------- --------- --------- -------- ------- ------- -------- --------- ---------
  -5.000   0.4004   0.05758   0.05227  -0.1550  0.5000  0.0325  -1.4424   0.0000   0.6491
  -4.000   0.4536   0.05111   0.04588  -0.1567  0.5000  0.0398  -1.2567   0.0000   0.6034
  -3.000   0.7068   0.01550   0.00809  -0.2239  0.5000  0.0390  -2.4734   0.0000   0.5708
  -2.000   0.8235   0.01394   0.00607  -0.2252  0.5000  0.0625  -1.8037   0.0000   0.5251
  -1.000   0.9334   0.01357   0.00561  -0.2248  0.5000  0.0985  -1.3066   0.0000   0.4903
   0.000   1.0406   0.01358   0.00561  -0.2239  0.5000  0.1366  -1.3909   0.0000   0.4628
   1.000   1.1473   0.01360   0.00566  -0.2232  0.5000  0.1743  -1.4806   0.0000   0.4403
   2.000   1.2534   0.01370   0.00581  -0.2224  0.5000  0.2116  -1.5699   0.0000   0.4214
   3.000   1.3575   0.01401   0.00625  -0.2214  0.5000  0.2594  -1.6661   0.0000   0.4054
   4.000   1.4612   0.01437   0.00698  -0.2207  0.5000  0.3771  -1.7652   0.0000   0.3915
   5.000   1.5626   0.01499   0.00790  -0.2196  0.5000  0.5000  -1.8702   0.0000   0.3792
   6.000   1.6614   0.01597   0.00903  -0.2181  0.5000  0.5000  -1.9965   0.0000   0.3682
   7.000   1.7606   0.01725   0.01054  -0.2172  0.5000  0.5000  -2.1478   0.0000   0.3584
   8.000   1.8621   0.01914   0.01268  -0.2171  0.4928  0.5000  -2.3350   0.0000   0.3497
   9.000   1.9114   0.02029   0.01415  -0.2068  0.4800  0.5000  -2.5013   0.0000   0.3392
  10.000   1.9632   0.02202   0.01593  -0.1978  0.4550  0.5000  -2.6963   0.0000   0.3296
  11.000   1.9995   0.02499   0.01921  -0.1877  0.4323  0.5000  -2.9038   0.0000   0.3205
  12.000   2.0181   0.02975   0.02404  -0.1769  0.4005  0.5000  -3.1128   0.0000   0.3120
  13.000   2.0129   0.03738   0.03173  -0.1660  0.3611  0.5000  -3.2980   0.0000   0.3043
  14.000   1.9882   0.04871   0.04316  -0.1568  0.3188  0.5000  -3.4702   0.0000   0.2981
  15.000   1.9509   0.06316   0.05772  -0.1499  0.2761  0.5000  -3.6076   0.0000   0.2933
  16.000   1.9165   0.07816   0.07290  -0.1455  0.2356  0.5000  -3.7513   0.0000   0.2896
  17.000   1.8868   0.09371   0.08854  -0.1433  0.1991  0.5000  -3.9408   0.0000   0.2869


