xflr5 v6.10.03

 Calculated polar for: E423

 1 1 Reynolds number fixed          Mach number fixed         

 xtrf =   0.500 (top)        0.500 (bottom)
 Mach =   0.080     Re =     0.520 e 6     Ncrit =   9.000

  alpha     CL        CD       CDp       Cm    Top Xtr Bot Xtr   Cpmin    Chinge    XCp    
 ------- -------- --------- --------- -------- ------- ------- -------- --------- ---------
  -5.000   0.4348   0.05929   0.05446  -0.1584  0.5000  0.0287  -1.2646   0.0000   0.6256
  -4.000   0.4720   0.04352   0.03875  -0.1684  0.5000  0.0230  -1.7738   0.0000   0.6147
  -3.000   0.7257   0.01304   0.00590  -0.2280  0.5000  0.0313  -2.5755   0.0000   0.5682
  -2.000   0.8377   0.01245   0.00515  -0.2279  0.5000  0.0494  -1.8157   0.0000   0.5236
  -1.000   0.9511   0.01174   0.00436  -0.2282  0.5000  0.0931  -1.3220   0.0000   0.4894
   0.000   1.0596   0.01175   0.00440  -0.2275  0.5000  0.1289  -1.4080   0.0000   0.4622
   1.000   1.1668   0.01190   0.00460  -0.2266  0.5000  0.1630  -1.4990   0.0000   0.4400
   2.000   1.2721   0.01224   0.00501  -0.2254  0.5000  0.1870  -1.5889   0.0000   0.4212
   3.000   1.3781   0.01246   0.00537  -0.2247  0.5000  0.2346  -1.6873   0.0000   0.4053
   4.000   1.4831   0.01281   0.00601  -0.2240  0.5000  0.3244  -1.7883   0.0000   0.3915
   5.000   1.5874   0.01328   0.00689  -0.2234  0.5000  0.5000  -1.8962   0.0000   0.3794
   6.000   1.6902   0.01416   0.00791  -0.2226  0.5000  0.5000  -2.0280   0.0000   0.3685
   7.000   1.7930   0.01535   0.00924  -0.2221  0.4925  0.5000  -2.1857   0.0000   0.3588
   8.000   1.8627   0.01613   0.01026  -0.2149  0.4813  0.5000  -2.3472   0.0000   0.3483
   9.000   1.9215   0.01765   0.01178  -0.2064  0.4573  0.5000  -2.5257   0.0000   0.3383
  10.000   1.9831   0.01951   0.01390  -0.1993  0.4374  0.5000  -2.7361   0.0000   0.3292
  11.000   2.0141   0.02303   0.01741  -0.1884  0.4040  0.5000  -2.9380   0.0000   0.3201
  12.000   2.0362   0.02803   0.02256  -0.1783  0.3734  0.5000  -3.1568   0.0000   0.3117
  13.000   2.0331   0.03613   0.03074  -0.1679  0.3337  0.5000  -3.3518   0.0000   0.3043
  14.000   1.9967   0.04894   0.04356  -0.1580  0.2873  0.5000  -3.5003   0.0000   0.2982
  15.000   1.9571   0.06401   0.05865  -0.1513  0.2432  0.5000  -3.6342   0.0000   0.2937
  16.000   1.9213   0.07952   0.07431  -0.1471  0.2037  0.5000  -3.7758   0.0000   0.2902
  17.000   1.8991   0.09441   0.08932  -0.1452  0.1744  0.5000  -3.9917   0.0000   0.2873


