xflr5 v6.10.03

 Calculated polar for: E423

 1 1 Reynolds number fixed          Mach number fixed         

 xtrf =   0.500 (top)        0.500 (bottom)
 Mach =   0.000     Re =     0.500 e 6     Ncrit =   9.000

  alpha     CL        CD       CDp       Cm    Top Xtr Bot Xtr   Cpmin    Chinge    XCp    
 ------- -------- --------- --------- -------- ------- ------- -------- --------- ---------
  -5.000   0.4321   0.05923   0.05434  -0.1582  0.5000  0.0287  -1.2771   0.0000   0.6274
  -4.000   0.4724   0.04325   0.03842  -0.1689  0.5000  0.0236  -1.7818   0.0000   0.6155
  -3.000   0.7254   0.01287   0.00558  -0.2277  0.5000  0.0345  -2.5758   0.0000   0.5680
  -2.000   0.8378   0.01213   0.00465  -0.2279  0.5000  0.0564  -1.8234   0.0000   0.5236
  -1.000   0.9476   0.01188   0.00444  -0.2275  0.5000  0.0946  -1.3154   0.0000   0.4895
   0.000   1.0554   0.01189   0.00447  -0.2267  0.5000  0.1306  -1.4007   0.0000   0.4624
   1.000   1.1622   0.01202   0.00466  -0.2259  0.5000  0.1651  -1.4911   0.0000   0.4401
   2.000   1.2670   0.01234   0.00503  -0.2248  0.5000  0.1886  -1.5803   0.0000   0.4214
   3.000   1.3724   0.01257   0.00540  -0.2240  0.5000  0.2355  -1.6779   0.0000   0.4055
   4.000   1.4771   0.01289   0.00603  -0.2234  0.5000  0.3324  -1.7782   0.0000   0.3917
   5.000   1.5806   0.01337   0.00689  -0.2227  0.5000  0.5000  -1.8851   0.0000   0.3796
   6.000   1.6826   0.01423   0.00789  -0.2219  0.5000  0.5000  -2.0156   0.0000   0.3687
   7.000   1.7883   0.01546   0.00929  -0.2221  0.4944  0.5000  -2.1747   0.0000   0.3592
   8.000   1.8579   0.01625   0.01031  -0.2151  0.4840  0.5000  -2.3359   0.0000   0.3488
   9.000   1.9193   0.01757   0.01169  -0.2071  0.4624  0.5000  -2.5172   0.0000   0.3389
  10.000   1.9778   0.01949   0.01382  -0.1995  0.4407  0.5000  -2.7230   0.0000   0.3297
  11.000   2.0104   0.02277   0.01712  -0.1888  0.4095  0.5000  -2.9262   0.0000   0.3205
  12.000   2.0384   0.02726   0.02179  -0.1794  0.3795  0.5000  -3.1553   0.0000   0.3122
  13.000   2.0393   0.03475   0.02935  -0.1690  0.3400  0.5000  -3.3618   0.0000   0.3047
  14.000   2.0095   0.04646   0.04107  -0.1591  0.2944  0.5000  -3.5250   0.0000   0.2983
  15.000   1.9639   0.06199   0.05662  -0.1517  0.2508  0.5000  -3.6445   0.0000   0.2937
  16.000   1.9258   0.07761   0.07239  -0.1472  0.2109  0.5000  -3.7857   0.0000   0.2901
  17.000   1.9032   0.09240   0.08730  -0.1451  0.1804  0.5000  -3.9986   0.0000   0.2872


