xflr5 v6.10.03

 Calculated polar for: E423

 1 1 Reynolds number fixed          Mach number fixed         

 xtrf =   0.500 (top)        0.500 (bottom)
 Mach =   0.000     Re =     0.280 e 6     Ncrit =   9.000

  alpha     CL        CD       CDp       Cm    Top Xtr Bot Xtr   Cpmin    Chinge    XCp    
 ------- -------- --------- --------- -------- ------- ------- -------- --------- ---------
  -5.000   0.4157   0.06441   0.05866  -0.1542  0.5000  0.0487  -1.1692   0.0000   0.6323
  -4.000   0.4772   0.05473   0.04902  -0.1622  0.5000  0.0493  -1.2366   0.0000   0.5973
  -3.000   0.6816   0.01967   0.01250  -0.2175  0.5000  0.0425  -2.2966   0.0000   0.5731
  -2.000   0.8093   0.01611   0.00805  -0.2224  0.5000  0.0668  -1.7573   0.0000   0.5263
  -1.000   0.9211   0.01528   0.00694  -0.2225  0.5000  0.1019  -1.2990   0.0000   0.4910
   0.000   1.0276   0.01524   0.00683  -0.2215  0.5000  0.1408  -1.3824   0.0000   0.4631
   1.000   1.1343   0.01512   0.00670  -0.2208  0.5000  0.1819  -1.4715   0.0000   0.4404
   2.000   1.2405   0.01507   0.00669  -0.2202  0.5000  0.2232  -1.5603   0.0000   0.4215
   3.000   1.3443   0.01534   0.00711  -0.2192  0.5000  0.2759  -1.6556   0.0000   0.4053
   5.000   1.5470   0.01646   0.00883  -0.2169  0.5000  0.5000  -1.8569   0.0000   0.3790
   6.000   1.6433   0.01758   0.01010  -0.2151  0.5000  0.5000  -1.9798   0.0000   0.3678
   7.000   1.7377   0.01903   0.01179  -0.2132  0.5000  0.5000  -2.1251   0.0000   0.3577
   8.000   1.8298   0.02107   0.01419  -0.2115  0.5000  0.5000  -2.2967   0.0000   0.3487
   9.000   1.9005   0.02350   0.01698  -0.2062  0.4896  0.5000  -2.4810   0.0000   0.3396
  10.000   1.9353   0.02542   0.01923  -0.1945  0.4703  0.5000  -2.6521   0.0000   0.3294
  11.000   1.9841   0.02781   0.02170  -0.1862  0.4446  0.5000  -2.8739   0.0000   0.3206
  12.000   1.9939   0.03266   0.02677  -0.1744  0.4167  0.5000  -3.0627   0.0000   0.3118
  13.000   1.9881   0.04034   0.03470  -0.1638  0.3822  0.5000  -3.2368   0.0000   0.3043
  14.000   1.9732   0.05064   0.04514  -0.1553  0.3428  0.5000  -3.4289   0.0000   0.2980
  15.000   1.9385   0.06443   0.05894  -0.1484  0.2967  0.5000  -3.5720   0.0000   0.2931
  16.000   1.9060   0.07898   0.07365  -0.1439  0.2545  0.5000  -3.7136   0.0000   0.2893
  17.000   1.8758   0.09438   0.08910  -0.1416  0.2154  0.5000  -3.9002   0.0000   0.2865


