xflr5 v6.10.03

 Calculated polar for: E423

 1 1 Reynolds number fixed          Mach number fixed         

 xtrf =   0.500 (top)        0.500 (bottom)
 Mach =   0.080     Re =     0.140 e 6     Ncrit =   9.000

  alpha     CL        CD       CDp       Cm    Top Xtr Bot Xtr   Cpmin    Chinge    XCp    
 ------- -------- --------- --------- -------- ------- ------- -------- --------- ---------
  -5.000   0.3905   0.07294   0.06594  -0.1500  0.5000  0.0749  -1.1470   0.0000   0.6455
  -4.000   0.4322   0.05882   0.05195  -0.1557  0.5000  0.0781  -1.2588   0.0000   0.6181
  -3.000   0.4820   0.05116   0.04439  -0.1510  0.5000  0.0924  -1.0667   0.0000   0.5679
  -1.000   0.8604   0.02274   0.01376  -0.2109  0.5000  0.1197  -1.2663   0.0000   0.4945
   0.000   0.9740   0.02135   0.01193  -0.2120  0.5000  0.1665  -1.3509   0.0000   0.4651
   1.000   1.0822   0.02059   0.01093  -0.2118  0.5000  0.2173  -1.4383   0.0000   0.4415
   2.000   1.1870   0.02028   0.01050  -0.2111  0.5000  0.2674  -1.5237   0.0000   0.4219
   3.000   1.2885   0.02054   0.01084  -0.2099  0.5000  0.3303  -1.6150   0.0000   0.4052
   4.000   1.3877   0.02103   0.01169  -0.2083  0.5000  0.5000  -1.7080   0.0000   0.3907
   5.000   1.4757   0.02257   0.01320  -0.2049  0.5000  0.5000  -1.8004   0.0000   0.3776
   6.000   1.5567   0.02455   0.01536  -0.2007  0.5000  0.5000  -1.9038   0.0000   0.3659
   7.000   1.6284   0.02726   0.01838  -0.1957  0.5000  0.5000  -2.0198   0.0000   0.3552
   8.000   1.6795   0.03172   0.02332  -0.1887  0.5000  0.5000  -2.1339   0.0000   0.3455
  10.000   1.3947   0.08703   0.07992  -0.1590  0.4473  0.5000  -1.8576   0.0000   0.3436
  11.000   1.3848   0.09917   0.09229  -0.1556  0.4112  0.5000  -1.8921   0.0000   0.3398
  15.000   1.6696   0.10182   0.09599  -0.1425  0.3249  0.5000  -2.8754   0.0000   0.3023
  16.000   1.6896   0.11010   0.10452  -0.1410  0.2902  0.5000  -3.1101   0.0000   0.2977
  17.000   1.7214   0.11656   0.11118  -0.1398  0.2572  0.5000  -3.3854   0.0000   0.2927


