xflr5 v6.10.03

 Calculated polar for: E423

 1 1 Reynolds number fixed          Mach number fixed         

 xtrf =   0.500 (top)        0.500 (bottom)
 Mach =   0.000     Re =     0.380 e 6     Ncrit =   9.000

  alpha     CL        CD       CDp       Cm    Top Xtr Bot Xtr   Cpmin    Chinge    XCp    
 ------- -------- --------- --------- -------- ------- ------- -------- --------- ---------
  -5.000   0.4044   0.05621   0.05098  -0.1584  0.5000  0.0305  -1.5801   0.0000   0.6537
  -4.000   0.4560   0.04915   0.04399  -0.1597  0.5000  0.0352  -1.3842   0.0000   0.6080
  -3.000   0.7106   0.01492   0.00750  -0.2247  0.5000  0.0383  -2.4985   0.0000   0.5703
  -2.000   0.8262   0.01357   0.00576  -0.2257  0.5000  0.0617  -1.8103   0.0000   0.5248
  -1.000   0.9359   0.01326   0.00538  -0.2253  0.5000  0.0978  -1.3081   0.0000   0.4902
   0.000   1.0432   0.01327   0.00539  -0.2244  0.5000  0.1357  -1.3926   0.0000   0.4627
   1.000   1.1498   0.01331   0.00547  -0.2236  0.5000  0.1726  -1.4824   0.0000   0.4402
   2.000   1.2558   0.01344   0.00564  -0.2228  0.5000  0.2089  -1.5718   0.0000   0.4214
   3.000   1.3600   0.01376   0.00609  -0.2218  0.5000  0.2547  -1.6681   0.0000   0.4054
   4.000   1.4638   0.01412   0.00681  -0.2211  0.5000  0.3652  -1.7673   0.0000   0.3915
   5.000   1.5657   0.01470   0.00772  -0.2201  0.5000  0.5000  -1.8728   0.0000   0.3793
   6.000   1.6651   0.01566   0.00882  -0.2188  0.5000  0.5000  -1.9998   0.0000   0.3683
   7.000   1.7651   0.01691   0.01030  -0.2179  0.5000  0.5000  -2.1522   0.0000   0.3585
   8.000   1.8605   0.01857   0.01220  -0.2166  0.4919  0.5000  -2.3343   0.0000   0.3495
   9.000   1.9136   0.01972   0.01366  -0.2070  0.4776  0.5000  -2.5052   0.0000   0.3392
  10.000   1.9710   0.02152   0.01545  -0.1990  0.4498  0.5000  -2.7086   0.0000   0.3298
  11.000   2.0039   0.02444   0.01870  -0.1883  0.4293  0.5000  -2.9117   0.0000   0.3206
  12.000   2.0218   0.02929   0.02366  -0.1774  0.3979  0.5000  -3.1205   0.0000   0.3120
  13.000   2.0178   0.03691   0.03134  -0.1666  0.3594  0.5000  -3.3098   0.0000   0.3044
  14.000   1.9933   0.04821   0.04273  -0.1573  0.3163  0.5000  -3.4829   0.0000   0.2981
  15.000   1.9561   0.06266   0.05727  -0.1504  0.2734  0.5000  -3.6210   0.0000   0.2934
  16.000   1.9205   0.07780   0.07259  -0.1459  0.2324  0.5000  -3.7641   0.0000   0.2897
  17.000   1.8911   0.09333   0.08821  -0.1437  0.1968  0.5000  -3.9553   0.0000   0.2869


