xflr5 v6.10.03

 Calculated polar for: E423

 1 1 Reynolds number fixed          Mach number fixed         

 xtrf =   0.500 (top)        0.500 (bottom)
 Mach =   0.000     Re =     0.320 e 6     Ncrit =   9.000

  alpha     CL        CD       CDp       Cm    Top Xtr Bot Xtr   Cpmin    Chinge    XCp    
 ------- -------- --------- --------- -------- ------- ------- -------- --------- ---------
  -5.000   0.4034   0.06062   0.05511  -0.1501  0.5000  0.0381  -1.1851   0.0000   0.6338
  -4.000   0.4764   0.05410   0.04863  -0.1615  0.5000  0.0490  -1.2125   0.0000   0.5964
  -3.000   0.6971   0.01706   0.00970  -0.2216  0.5000  0.0406  -2.4072   0.0000   0.5719
  -2.000   0.8171   0.01486   0.00689  -0.2240  0.5000  0.0643  -1.7855   0.0000   0.5257
  -1.000   0.9279   0.01432   0.00618  -0.2238  0.5000  0.0999  -1.3032   0.0000   0.4906
   0.000   1.0348   0.01431   0.00613  -0.2229  0.5000  0.1386  -1.3870   0.0000   0.4629
   1.000   1.1414   0.01427   0.00611  -0.2221  0.5000  0.1779  -1.4765   0.0000   0.4403
   2.000   1.2476   0.01431   0.00620  -0.2214  0.5000  0.2169  -1.5656   0.0000   0.4215
   3.000   1.3517   0.01460   0.00664  -0.2204  0.5000  0.2677  -1.6614   0.0000   0.4054
   4.000   1.4549   0.01495   0.00738  -0.2196  0.5000  0.3994  -1.7600   0.0000   0.3915
   5.000   1.5555   0.01565   0.00831  -0.2184  0.5000  0.5000  -1.8641   0.0000   0.3791
   6.000   1.6534   0.01669   0.00951  -0.2168  0.5000  0.5000  -1.9891   0.0000   0.3680
   7.000   1.7505   0.01804   0.01109  -0.2154  0.5000  0.5000  -2.1378   0.0000   0.3581
   8.000   1.8465   0.01998   0.01338  -0.2144  0.5000  0.5000  -2.3163   0.0000   0.3492
   9.000   1.9059   0.02166   0.01536  -0.2064  0.4849  0.5000  -2.4915   0.0000   0.3393
  10.000   1.9538   0.02326   0.01713  -0.1967  0.4631  0.5000  -2.6808   0.0000   0.3296
  11.000   1.9903   0.02629   0.02038  -0.1867  0.4386  0.5000  -2.8870   0.0000   0.3205
  12.000   2.0142   0.03060   0.02469  -0.1764  0.4048  0.5000  -3.1033   0.0000   0.3119
  13.000   2.0046   0.03842   0.03277  -0.1653  0.3722  0.5000  -3.2773   0.0000   0.3043
  14.000   1.9854   0.04916   0.04362  -0.1563  0.3312  0.5000  -3.4611   0.0000   0.2980
  15.000   1.9429   0.06395   0.05842  -0.1491  0.2844  0.5000  -3.5861   0.0000   0.2932
  16.000   1.9080   0.07889   0.07350  -0.1446  0.2417  0.5000  -3.7237   0.0000   0.2895
  17.000   1.8776   0.09445   0.08912  -0.1424  0.2029  0.5000  -3.9096   0.0000   0.2868


