xflr5 v6.10.03

 Calculated polar for: E423

 1 1 Reynolds number fixed          Mach number fixed         

 xtrf =   0.500 (top)        0.500 (bottom)
 Mach =   0.080     Re =     0.320 e 6     Ncrit =   9.000

  alpha     CL        CD       CDp       Cm    Top Xtr Bot Xtr   Cpmin    Chinge    XCp    
 ------- -------- --------- --------- -------- ------- ------- -------- --------- ---------
  -5.000   0.4049   0.06080   0.05530  -0.1501  0.5000  0.0381  -1.1812   0.0000   0.6325
  -4.000   0.4760   0.05438   0.04892  -0.1611  0.5000  0.0489  -1.2095   0.0000   0.5958
  -3.000   0.6969   0.01720   0.00989  -0.2217  0.5000  0.0399  -2.4207   0.0000   0.5722
  -2.000   0.8182   0.01490   0.00695  -0.2243  0.5000  0.0634  -1.8013   0.0000   0.5257
  -1.000   0.9295   0.01436   0.00623  -0.2241  0.5000  0.0990  -1.3085   0.0000   0.4906
   0.000   1.0369   0.01435   0.00618  -0.2232  0.5000  0.1380  -1.3929   0.0000   0.4628
   1.000   1.1440   0.01432   0.00617  -0.2224  0.5000  0.1772  -1.4829   0.0000   0.4402
   2.000   1.2506   0.01438   0.00627  -0.2217  0.5000  0.2161  -1.5726   0.0000   0.4213
   3.000   1.3551   0.01468   0.00672  -0.2207  0.5000  0.2663  -1.6690   0.0000   0.4052
   4.000   1.4586   0.01506   0.00748  -0.2199  0.5000  0.3910  -1.7681   0.0000   0.3912
   5.000   1.5596   0.01577   0.00845  -0.2186  0.5000  0.5000  -1.8729   0.0000   0.3789
   6.000   1.6577   0.01684   0.00968  -0.2169  0.5000  0.5000  -1.9983   0.0000   0.3677
   7.000   1.7550   0.01825   0.01132  -0.2155  0.5000  0.5000  -2.1476   0.0000   0.3578
   8.000   1.8503   0.02029   0.01373  -0.2143  0.5000  0.5000  -2.3254   0.0000   0.3489
   9.000   1.9058   0.02198   0.01571  -0.2054  0.4836  0.5000  -2.4963   0.0000   0.3388
  10.000   1.9548   0.02364   0.01752  -0.1958  0.4612  0.5000  -2.6881   0.0000   0.3290
  11.000   1.9892   0.02689   0.02101  -0.1856  0.4370  0.5000  -2.8908   0.0000   0.3199
  12.000   2.0118   0.03146   0.02559  -0.1754  0.4036  0.5000  -3.1033   0.0000   0.3114
  13.000   1.9986   0.03981   0.03415  -0.1641  0.3688  0.5000  -3.2666   0.0000   0.3039
  14.000   1.9788   0.05088   0.04534  -0.1555  0.3277  0.5000  -3.4502   0.0000   0.2977
  15.000   1.9380   0.06567   0.06012  -0.1486  0.2799  0.5000  -3.5797   0.0000   0.2931
  16.000   1.9061   0.08038   0.07501  -0.1444  0.2390  0.5000  -3.7231   0.0000   0.2894
  17.000   1.8771   0.09593   0.09065  -0.1424  0.2017  0.5000  -3.9121   0.0000   0.2868


