xflr5 v6.10.03

 Calculated polar for: E423

 1 1 Reynolds number fixed          Mach number fixed         

 xtrf =   0.500 (top)        0.500 (bottom)
 Mach =   0.080     Re =     0.340 e 6     Ncrit =   9.000

  alpha     CL        CD       CDp       Cm    Top Xtr Bot Xtr   Cpmin    Chinge    XCp    
 ------- -------- --------- --------- -------- ------- ------- -------- --------- ---------
  -5.000   0.4034   0.05962   0.05422  -0.1515  0.5000  0.0348  -1.2707   0.0000   0.6374
  -4.000   0.4744   0.05394   0.04859  -0.1606  0.5000  0.0487  -1.2039   0.0000   0.5960
  -3.000   0.7025   0.01630   0.00894  -0.2231  0.5000  0.0390  -2.4600   0.0000   0.5716
  -2.000   0.8216   0.01441   0.00650  -0.2250  0.5000  0.0624  -1.8118   0.0000   0.5254
  -1.000   0.9325   0.01396   0.00593  -0.2247  0.5000  0.0982  -1.3104   0.0000   0.4904
   0.000   1.0400   0.01396   0.00590  -0.2238  0.5000  0.1369  -1.3950   0.0000   0.4627
   1.000   1.1471   0.01396   0.00593  -0.2230  0.5000  0.1752  -1.4851   0.0000   0.4401
   2.000   1.2537   0.01405   0.00606  -0.2223  0.5000  0.2134  -1.5750   0.0000   0.4213
   3.000   1.3582   0.01437   0.00652  -0.2213  0.5000  0.2622  -1.6715   0.0000   0.4052
   4.000   1.4620   0.01475   0.00727  -0.2204  0.5000  0.3799  -1.7709   0.0000   0.3913
   5.000   1.5634   0.01542   0.00822  -0.2192  0.5000  0.5000  -1.8762   0.0000   0.3789
   6.000   1.6620   0.01646   0.00942  -0.2176  0.5000  0.5000  -2.0023   0.0000   0.3678
   7.000   1.7605   0.01782   0.01103  -0.2164  0.5000  0.5000  -2.1531   0.0000   0.3579
   8.000   1.8617   0.01986   0.01334  -0.2163  0.4947  0.5000  -2.3389   0.0000   0.3492
   9.000   1.9094   0.02123   0.01504  -0.2057  0.4811  0.5000  -2.5024   0.0000   0.3387
  10.000   1.9603   0.02294   0.01683  -0.1965  0.4571  0.5000  -2.6969   0.0000   0.3291
  11.000   1.9945   0.02617   0.02036  -0.1862  0.4337  0.5000  -2.9004   0.0000   0.3200
  12.000   2.0136   0.03102   0.02527  -0.1756  0.4016  0.5000  -3.1079   0.0000   0.3115
  13.000   2.0037   0.03919   0.03353  -0.1646  0.3630  0.5000  -3.2793   0.0000   0.3039
  14.000   1.9802   0.05065   0.04509  -0.1557  0.3209  0.5000  -3.4547   0.0000   0.2978
  15.000   1.9431   0.06519   0.05971  -0.1491  0.2768  0.5000  -3.5933   0.0000   0.2932
  16.000   1.9104   0.08005   0.07477  -0.1449  0.2367  0.5000  -3.7353   0.0000   0.2895
  17.000   1.8817   0.09558   0.09039  -0.1429  0.1997  0.5000  -3.9280   0.0000   0.2868


