xflr5 v6.10.03

 Calculated polar for: E423

 1 1 Reynolds number fixed          Mach number fixed         

 xtrf =   0.500 (top)        0.500 (bottom)
 Mach =   0.000     Re =     0.160 e 6     Ncrit =   9.000

  alpha     CL        CD       CDp       Cm    Top Xtr Bot Xtr   Cpmin    Chinge    XCp    
 ------- -------- --------- --------- -------- ------- ------- -------- --------- ---------
  -5.000   0.3824   0.06650   0.05978  -0.1425  0.5000  0.0662  -1.0686   0.0000   0.6346
  -4.000   0.4613   0.06119   0.05448  -0.1589  0.5000  0.0751  -1.1651   0.0000   0.6019
  -3.000   0.5168   0.04703   0.04039  -0.1633  0.5000  0.0819  -1.1780   0.0000   0.5704
  -1.000   0.8818   0.02037   0.01132  -0.2152  0.5000  0.1169  -1.2746   0.0000   0.4935
   0.000   0.9900   0.01964   0.01033  -0.2149  0.5000  0.1618  -1.3570   0.0000   0.4647
   1.000   1.0970   0.01912   0.00965  -0.2145  0.5000  0.2104  -1.4444   0.0000   0.4413
   2.000   1.2012   0.01891   0.00937  -0.2136  0.5000  0.2588  -1.5300   0.0000   0.4219
   3.000   1.3024   0.01916   0.00974  -0.2123  0.5000  0.3201  -1.6216   0.0000   0.4053
   4.000   1.4030   0.01958   0.01056  -0.2111  0.5000  0.5000  -1.7162   0.0000   0.3910
   5.000   1.4941   0.02090   0.01186  -0.2082  0.5000  0.5000  -1.8114   0.0000   0.3781
   6.000   1.5800   0.02255   0.01369  -0.2047  0.5000  0.5000  -1.9209   0.0000   0.3665
   7.000   1.6604   0.02471   0.01613  -0.2009  0.5000  0.5000  -2.0475   0.0000   0.3561
   8.000   1.7277   0.02794   0.01980  -0.1956  0.5000  0.5000  -2.1835   0.0000   0.3464
   9.000   1.7476   0.03506   0.02755  -0.1855  0.5000  0.5000  -2.2837   0.0000   0.3374
  11.000   1.6441   0.06235   0.05572  -0.1592  0.4517  0.5000  -2.3224   0.0000   0.3237
  13.000   1.8076   0.06191   0.05573  -0.1526  0.4057  0.5000  -2.8611   0.0000   0.3064
  14.000   1.7745   0.07494   0.06905  -0.1463  0.3684  0.5000  -2.9584   0.0000   0.3018
  15.000   1.7853   0.08387   0.07819  -0.1427  0.3310  0.5000  -3.1723   0.0000   0.2967
  16.000   1.8101   0.09132   0.08577  -0.1400  0.2930  0.5000  -3.4404   0.0000   0.2914
  17.000   1.8192   0.10095   0.09560  -0.1381  0.2529  0.5000  -3.6936   0.0000   0.2872


