xflr5 v6.10.03

 Calculated polar for: E423

 1 1 Reynolds number fixed          Mach number fixed         

 xtrf =   0.500 (top)        0.500 (bottom)
 Mach =   0.080     Re =     0.540 e 6     Ncrit =   9.000

  alpha     CL        CD       CDp       Cm    Top Xtr Bot Xtr   Cpmin    Chinge    XCp    
 ------- -------- --------- --------- -------- ------- ------- -------- --------- ---------
  -5.000   0.4363   0.05915   0.05437  -0.1587  0.5000  0.0287  -1.2565   0.0000   0.6249
  -4.000   0.4741   0.04296   0.03824  -0.1694  0.5000  0.0223  -1.8043   0.0000   0.6153
  -3.000   0.7230   0.01358   0.00669  -0.2271  0.5000  0.0289  -2.5286   0.0000   0.5682
  -2.000   0.8396   0.01222   0.00496  -0.2283  0.5000  0.0494  -1.8185   0.0000   0.5235
  -1.000   0.9527   0.01158   0.00426  -0.2285  0.5000  0.0926  -1.3230   0.0000   0.4893
   0.000   1.0612   0.01159   0.00430  -0.2278  0.5000  0.1280  -1.4091   0.0000   0.4622
   1.000   1.1685   0.01175   0.00451  -0.2269  0.5000  0.1617  -1.5002   0.0000   0.4399
   2.000   1.2739   0.01207   0.00491  -0.2258  0.5000  0.1867  -1.5902   0.0000   0.4212
   3.000   1.3799   0.01230   0.00528  -0.2250  0.5000  0.2339  -1.6887   0.0000   0.4053
   4.000   1.4849   0.01266   0.00591  -0.2243  0.5000  0.3202  -1.7897   0.0000   0.3916
   5.000   1.5893   0.01312   0.00679  -0.2237  0.5000  0.5000  -1.8978   0.0000   0.3795
   6.000   1.6925   0.01399   0.00779  -0.2230  0.5000  0.5000  -2.0300   0.0000   0.3686
   7.000   1.7921   0.01508   0.00904  -0.2218  0.4920  0.5000  -2.1853   0.0000   0.3587
   8.000   1.8638   0.01587   0.01004  -0.2150  0.4798  0.5000  -2.3489   0.0000   0.3483
   9.000   1.9224   0.01749   0.01163  -0.2065  0.4538  0.5000  -2.5271   0.0000   0.3383
  10.000   1.9851   0.01926   0.01368  -0.1995  0.4354  0.5000  -2.7396   0.0000   0.3293
  11.000   2.0173   0.02274   0.01717  -0.1888  0.4031  0.5000  -2.9433   0.0000   0.3201
  12.000   2.0353   0.02801   0.02254  -0.1782  0.3697  0.5000  -3.1556   0.0000   0.3117
  13.000   2.0308   0.03629   0.03088  -0.1677  0.3294  0.5000  -3.3473   0.0000   0.3043
  14.000   1.9944   0.04919   0.04380  -0.1580  0.2829  0.5000  -3.4954   0.0000   0.2983
  15.000   1.9582   0.06390   0.05854  -0.1514  0.2393  0.5000  -3.6373   0.0000   0.2937
  16.000   1.9252   0.07908   0.07389  -0.1473  0.2020  0.5000  -3.7879   0.0000   0.2901
  17.000   1.8996   0.09439   0.08929  -0.1453  0.1711  0.5000  -3.9938   0.0000   0.2873


