xflr5 v6.10.03

 Calculated polar for: E423

 1 1 Reynolds number fixed          Mach number fixed         

 xtrf =   0.500 (top)        0.500 (bottom)
 Mach =   0.000     Re =     0.460 e 6     Ncrit =   9.000

  alpha     CL        CD       CDp       Cm    Top Xtr Bot Xtr   Cpmin    Chinge    XCp    
 ------- -------- --------- --------- -------- ------- ------- -------- --------- ---------
  -5.000   0.4290   0.05957   0.05456  -0.1577  0.5000  0.0288  -1.2956   0.0000   0.6290
  -4.000   0.4690   0.04424   0.03930  -0.1672  0.5000  0.0251  -1.7373   0.0000   0.6146
  -3.000   0.7217   0.01333   0.00597  -0.2270  0.5000  0.0360  -2.5630   0.0000   0.5686
  -2.000   0.8347   0.01249   0.00489  -0.2273  0.5000  0.0588  -1.8236   0.0000   0.5239
  -1.000   0.9441   0.01226   0.00469  -0.2268  0.5000  0.0956  -1.3133   0.0000   0.4897
   0.000   1.0518   0.01228   0.00472  -0.2260  0.5000  0.1322  -1.3983   0.0000   0.4625
   1.000   1.1586   0.01238   0.00488  -0.2252  0.5000  0.1675  -1.4885   0.0000   0.4402
   2.000   1.2640   0.01263   0.00516  -0.2242  0.5000  0.1960  -1.5779   0.0000   0.4214
   3.000   1.3684   0.01294   0.00562  -0.2233  0.5000  0.2365  -1.6748   0.0000   0.4054
   4.000   1.4731   0.01325   0.00626  -0.2227  0.5000  0.3407  -1.7750   0.0000   0.3917
   5.000   1.5763   0.01375   0.00713  -0.2220  0.5000  0.5000  -1.8816   0.0000   0.3795
   6.000   1.6774   0.01464   0.00816  -0.2209  0.5000  0.5000  -2.0110   0.0000   0.3686
   7.000   1.7803   0.01582   0.00956  -0.2206  0.5000  0.5000  -2.1670   0.0000   0.3589
   8.000   1.8571   0.01688   0.01083  -0.2152  0.4869  0.5000  -2.3338   0.0000   0.3489
   9.000   1.9197   0.01806   0.01215  -0.2074  0.4678  0.5000  -2.5165   0.0000   0.3390
  10.000   1.9741   0.02009   0.01431  -0.1991  0.4439  0.5000  -2.7163   0.0000   0.3297
  11.000   2.0110   0.02307   0.01740  -0.1890  0.4170  0.5000  -2.9260   0.0000   0.3206
  12.000   2.0355   0.02771   0.02222  -0.1790  0.3856  0.5000  -3.1489   0.0000   0.3122
  13.000   2.0366   0.03511   0.02971  -0.1687  0.3478  0.5000  -3.3544   0.0000   0.3046
  14.000   2.0091   0.04659   0.04121  -0.1589  0.3021  0.5000  -3.5224   0.0000   0.2983
  15.000   1.9670   0.06162   0.05627  -0.1516  0.2588  0.5000  -3.6507   0.0000   0.2935
  16.000   1.9276   0.07730   0.07209  -0.1470  0.2180  0.5000  -3.7894   0.0000   0.2900
  17.000   1.9023   0.09239   0.08731  -0.1448  0.1860  0.5000  -3.9941   0.0000   0.2870


