xflr5 v6.10.03

 Calculated polar for: E423

 1 1 Reynolds number fixed          Mach number fixed         

 xtrf =   0.500 (top)        0.500 (bottom)
 Mach =   0.080     Re =     0.120 e 6     Ncrit =   9.000

  alpha     CL        CD       CDp       Cm    Top Xtr Bot Xtr   Cpmin    Chinge    XCp    
 ------- -------- --------- --------- -------- ------- ------- -------- --------- ---------
  -5.000   0.3567   0.07071   0.06350  -0.1444  0.5000  0.0781  -1.2251   0.0000   0.6674
  -4.000   0.3937   0.06189   0.05482  -0.1383  0.5000  0.0866  -1.0837   0.0000   0.6098
  -3.000   0.5172   0.05649   0.04917  -0.1615  0.5000  0.1066  -1.1106   0.0000   0.5663
  -2.000   0.5739   0.04367   0.03648  -0.1605  0.5000  0.1287  -1.1169   0.0000   0.5315
  -1.000   0.8231   0.02617   0.01732  -0.2030  0.5000  0.1240  -1.2450   0.0000   0.4961
   0.000   0.9470   0.02353   0.01397  -0.2069  0.5000  0.1732  -1.3331   0.0000   0.4660
   1.000   1.0578   0.02245   0.01254  -0.2076  0.5000  0.2265  -1.4208   0.0000   0.4420
   2.000   1.1634   0.02200   0.01191  -0.2072  0.5000  0.2792  -1.5056   0.0000   0.4221
   3.000   1.2646   0.02225   0.01217  -0.2061  0.5000  0.3435  -1.5958   0.0000   0.4052
   4.000   1.3606   0.02282   0.01308  -0.2040  0.5000  0.5000  -1.6852   0.0000   0.3905
   5.000   1.4447   0.02463   0.01485  -0.2001  0.5000  0.5000  -1.7733   0.0000   0.3773
   6.000   1.5197   0.02704   0.01744  -0.1953  0.5000  0.5000  -1.8687   0.0000   0.3655
   7.000   1.5788   0.03063   0.02138  -0.1890  0.5000  0.5000  -1.9687   0.0000   0.3548
   8.000   1.5856   0.03887   0.03020  -0.1783  0.5000  0.5000  -2.0252   0.0000   0.3456
  10.000   1.2040   0.11461   0.10724  -0.1605  0.4223  0.5000  -1.5380   0.0000   0.3639
  11.000   1.3141   0.11202   0.10475  -0.1569  0.4097  0.5000  -1.7603   0.0000   0.3474
  12.000   1.3102   0.12515   0.11812  -0.1559  0.3728  0.5000  -1.7967   0.0000   0.3450
  13.000   1.4035   0.12310   0.11631  -0.1517  0.3581  0.5000  -2.0400   0.0000   0.3313
  14.000   1.4213   0.13235   0.12584  -0.1513  0.3257  0.5000  -2.1539   0.0000   0.3273
  16.000   1.4931   0.14399   0.13810  -0.1496  0.2737  0.5000  -2.5251   0.0000   0.3158
  17.000   1.5390   0.14719   0.14159  -0.1489  0.2474  0.5000  -2.8026   0.0000   0.3094


