xflr5 v6.10.03

 Calculated polar for: E423

 1 1 Reynolds number fixed          Mach number fixed         

 xtrf =   0.500 (top)        0.500 (bottom)
 Mach =   0.080     Re =     0.440 e 6     Ncrit =   9.000

  alpha     CL        CD       CDp       Cm    Top Xtr Bot Xtr   Cpmin    Chinge    XCp    
 ------- -------- --------- --------- -------- ------- ------- -------- --------- ---------
  -5.000   0.4286   0.05997   0.05490  -0.1575  0.5000  0.0289  -1.3017   0.0000   0.6287
  -3.000   0.7199   0.01369   0.00633  -0.2269  0.5000  0.0358  -2.5730   0.0000   0.5693
  -2.000   0.8340   0.01276   0.00511  -0.2274  0.5000  0.0583  -1.8382   0.0000   0.5242
  -1.000   0.9441   0.01251   0.00488  -0.2269  0.5000  0.0951  -1.3177   0.0000   0.4898
   0.000   1.0522   0.01253   0.00490  -0.2261  0.5000  0.1321  -1.4031   0.0000   0.4624
   1.000   1.1594   0.01263   0.00506  -0.2252  0.5000  0.1677  -1.4938   0.0000   0.4400
   2.000   1.2654   0.01286   0.00532  -0.2243  0.5000  0.1984  -1.5838   0.0000   0.4212
   3.000   1.3699   0.01321   0.00582  -0.2232  0.5000  0.2368  -1.6810   0.0000   0.4052
   4.000   1.4751   0.01353   0.00647  -0.2226  0.5000  0.3414  -1.7817   0.0000   0.3914
   5.000   1.5785   0.01406   0.00737  -0.2218  0.5000  0.5000  -1.8888   0.0000   0.3792
   6.000   1.6797   0.01500   0.00845  -0.2207  0.5000  0.5000  -2.0184   0.0000   0.3683
   7.000   1.7824   0.01624   0.00992  -0.2202  0.5000  0.5000  -2.1746   0.0000   0.3586
   8.000   1.8602   0.01742   0.01131  -0.2149  0.4875  0.5000  -2.3419   0.0000   0.3486
   9.000   1.9216   0.01863   0.01269  -0.2068  0.4688  0.5000  -2.5233   0.0000   0.3386
  10.000   1.9751   0.02074   0.01493  -0.1983  0.4445  0.5000  -2.7217   0.0000   0.3292
  11.000   2.0108   0.02383   0.01816  -0.1880  0.4180  0.5000  -2.9308   0.0000   0.3201
  12.000   2.0325   0.02878   0.02329  -0.1778  0.3865  0.5000  -3.1474   0.0000   0.3117
  13.000   2.0293   0.03670   0.03131  -0.1674  0.3492  0.5000  -3.3406   0.0000   0.3042
  14.000   2.0021   0.04844   0.04307  -0.1579  0.3029  0.5000  -3.5102   0.0000   0.2980
  15.000   1.9622   0.06338   0.05805  -0.1510  0.2599  0.5000  -3.6440   0.0000   0.2933
  16.000   1.9235   0.07904   0.07384  -0.1465  0.2190  0.5000  -3.7796   0.0000   0.2898
  17.000   1.8982   0.09422   0.08915  -0.1445  0.1863  0.5000  -3.9856   0.0000   0.2870


