xflr5 v6.10.03

 Calculated polar for: E423

 1 1 Reynolds number fixed          Mach number fixed         

 xtrf =   0.500 (top)        0.500 (bottom)
 Mach =   0.000     Re =     0.340 e 6     Ncrit =   9.000

  alpha     CL        CD       CDp       Cm    Top Xtr Bot Xtr   Cpmin    Chinge    XCp    
 ------- -------- --------- --------- -------- ------- ------- -------- --------- ---------
  -5.000   0.4021   0.05942   0.05401  -0.1515  0.5000  0.0348  -1.2754   0.0000   0.6388
  -4.000   0.4750   0.05367   0.04831  -0.1611  0.5000  0.0487  -1.2066   0.0000   0.5965
  -3.000   0.7024   0.01621   0.00881  -0.2228  0.5000  0.0398  -2.4435   0.0000   0.5713
  -2.000   0.8205   0.01437   0.00644  -0.2246  0.5000  0.0633  -1.7955   0.0000   0.5253
  -1.000   0.9308   0.01392   0.00587  -0.2243  0.5000  0.0992  -1.3050   0.0000   0.4905
   0.000   1.0378   0.01393   0.00585  -0.2234  0.5000  0.1376  -1.3890   0.0000   0.4628
   1.000   1.1445   0.01391   0.00587  -0.2226  0.5000  0.1760  -1.4786   0.0000   0.4403
   2.000   1.2506   0.01399   0.00599  -0.2219  0.5000  0.2142  -1.5679   0.0000   0.4215
   3.000   1.3547   0.01429   0.00643  -0.2210  0.5000  0.2636  -1.6639   0.0000   0.4054
   4.000   1.4582   0.01465   0.00717  -0.2202  0.5000  0.3880  -1.7627   0.0000   0.3915
   5.000   1.5592   0.01531   0.00809  -0.2190  0.5000  0.5000  -1.8673   0.0000   0.3792
   6.000   1.6575   0.01631   0.00926  -0.2175  0.5000  0.5000  -1.9929   0.0000   0.3681
   7.000   1.7559   0.01762   0.01080  -0.2163  0.5000  0.5000  -2.1431   0.0000   0.3582
   8.000   1.8550   0.01951   0.01299  -0.2159  0.4973  0.5000  -2.3265   0.0000   0.3495
   9.000   1.9088   0.02093   0.01472  -0.2066  0.4824  0.5000  -2.4966   0.0000   0.3393
  10.000   1.9587   0.02256   0.01646  -0.1972  0.4593  0.5000  -2.6887   0.0000   0.3296
  11.000   1.9947   0.02561   0.01978  -0.1872  0.4355  0.5000  -2.8952   0.0000   0.3205
  12.000   2.0157   0.03018   0.02437  -0.1766  0.4027  0.5000  -3.1072   0.0000   0.3119
  13.000   2.0074   0.03799   0.03234  -0.1655  0.3669  0.5000  -3.2849   0.0000   0.3043
  14.000   1.9855   0.04904   0.04349  -0.1565  0.3248  0.5000  -3.4630   0.0000   0.2980
  15.000   1.9457   0.06365   0.05812  -0.1494  0.2783  0.5000  -3.5941   0.0000   0.2933
  16.000   1.9122   0.07852   0.07319  -0.1450  0.2382  0.5000  -3.7374   0.0000   0.2896
  17.000   1.8823   0.09409   0.08885  -0.1429  0.2011  0.5000  -3.9254   0.0000   0.2869


