xflr5 v6.10.03

 Calculated polar for: E423

 1 1 Reynolds number fixed          Mach number fixed         

 xtrf =   0.500 (top)        0.500 (bottom)
 Mach =   0.000     Re =     0.260 e 6     Ncrit =   9.000

  alpha     CL        CD       CDp       Cm    Top Xtr Bot Xtr   Cpmin    Chinge    XCp    
 ------- -------- --------- --------- -------- ------- ------- -------- --------- ---------
  -5.000   0.4159   0.06526   0.05938  -0.1546  0.5000  0.0490  -1.1796   0.0000   0.6330
  -3.000   0.5826   0.03519   0.02914  -0.1848  0.5000  0.0411  -1.6247   0.0000   0.5714
  -2.000   0.8042   0.01692   0.00882  -0.2213  0.5000  0.0683  -1.7388   0.0000   0.5267
  -1.000   0.9173   0.01589   0.00744  -0.2217  0.5000  0.1030  -1.2966   0.0000   0.4912
   0.000   1.0235   0.01581   0.00728  -0.2207  0.5000  0.1419  -1.3796   0.0000   0.4632
   2.000   1.2362   0.01553   0.00699  -0.2194  0.5000  0.2267  -1.5571   0.0000   0.4215
   3.000   1.3400   0.01578   0.00740  -0.2185  0.5000  0.2802  -1.6521   0.0000   0.4053
   5.000   1.5418   0.01695   0.00914  -0.2160  0.5000  0.5000  -1.8525   0.0000   0.3789
   6.000   1.6371   0.01812   0.01046  -0.2140  0.5000  0.5000  -1.9740   0.0000   0.3676
   7.000   1.7299   0.01962   0.01222  -0.2119  0.5000  0.5000  -2.1174   0.0000   0.3575
   8.000   1.8198   0.02174   0.01470  -0.2099  0.5000  0.5000  -2.2849   0.0000   0.3484
   9.000   1.8983   0.02470   0.01805  -0.2063  0.4917  0.5000  -2.4758   0.0000   0.3398
  10.000   1.9218   0.02694   0.02070  -0.1929  0.4739  0.5000  -2.6312   0.0000   0.3294
  11.000   1.9837   0.02867   0.02243  -0.1864  0.4470  0.5000  -2.8710   0.0000   0.3207
  12.000   1.9788   0.03422   0.02834  -0.1729  0.4212  0.5000  -3.0327   0.0000   0.3118
  13.000   1.9749   0.04182   0.03616  -0.1627  0.3875  0.5000  -3.2081   0.0000   0.3043
  14.000   1.9632   0.05179   0.04625  -0.1545  0.3481  0.5000  -3.4037   0.0000   0.2980
  15.000   1.9317   0.06522   0.05974  -0.1478  0.3030  0.5000  -3.5530   0.0000   0.2931
  16.000   1.9016   0.07944   0.07414  -0.1434  0.2602  0.5000  -3.6991   0.0000   0.2892
  17.000   1.8746   0.09438   0.08915  -0.1412  0.2211  0.5000  -3.8931   0.0000   0.2863


