xflr5 v6.10.03

 Calculated polar for: E423

 1 1 Reynolds number fixed          Mach number fixed         

 xtrf =   0.500 (top)        0.500 (bottom)
 Mach =   0.080     Re =     0.460 e 6     Ncrit =   9.000

  alpha     CL        CD       CDp       Cm    Top Xtr Bot Xtr   Cpmin    Chinge    XCp    
 ------- -------- --------- --------- -------- ------- ------- -------- --------- ---------
  -5.000   0.4301   0.05978   0.05478  -0.1577  0.5000  0.0288  -1.2914   0.0000   0.6279
  -4.000   0.4672   0.04490   0.03997  -0.1661  0.5000  0.0251  -1.7121   0.0000   0.6135
  -3.000   0.7221   0.01341   0.00607  -0.2273  0.5000  0.0350  -2.5828   0.0000   0.5689
  -2.000   0.8357   0.01255   0.00496  -0.2277  0.5000  0.0571  -1.8391   0.0000   0.5240
  -1.000   0.9460   0.01229   0.00473  -0.2272  0.5000  0.0946  -1.3188   0.0000   0.4897
   0.000   1.0542   0.01231   0.00476  -0.2264  0.5000  0.1313  -1.4044   0.0000   0.4624
   1.000   1.1614   0.01243   0.00493  -0.2256  0.5000  0.1666  -1.4952   0.0000   0.4400
   2.000   1.2671   0.01269   0.00523  -0.2246  0.5000  0.1946  -1.5851   0.0000   0.4212
   3.000   1.3721   0.01300   0.00569  -0.2236  0.5000  0.2363  -1.6827   0.0000   0.4052
   4.000   1.4773   0.01333   0.00634  -0.2230  0.5000  0.3371  -1.7835   0.0000   0.3914
   5.000   1.5810   0.01385   0.00724  -0.2223  0.5000  0.5000  -1.8909   0.0000   0.3793
   6.000   1.6826   0.01477   0.00830  -0.2212  0.5000  0.5000  -2.0211   0.0000   0.3683
   7.000   1.7859   0.01599   0.00975  -0.2209  0.5000  0.5000  -2.1780   0.0000   0.3587
   8.000   1.8604   0.01705   0.01102  -0.2148  0.4860  0.5000  -2.3429   0.0000   0.3485
   9.000   1.9224   0.01830   0.01239  -0.2068  0.4663  0.5000  -2.5252   0.0000   0.3385
  10.000   1.9767   0.02041   0.01465  -0.1984  0.4429  0.5000  -2.7247   0.0000   0.3292
  11.000   2.0103   0.02365   0.01799  -0.1879  0.4145  0.5000  -2.9307   0.0000   0.3200
  12.000   2.0347   0.02848   0.02300  -0.1781  0.3832  0.5000  -3.1523   0.0000   0.3117
  13.000   2.0325   0.03637   0.03099  -0.1677  0.3455  0.5000  -3.3483   0.0000   0.3042
  14.000   2.0036   0.04827   0.04290  -0.1581  0.2990  0.5000  -3.5143   0.0000   0.2980
  15.000   1.9622   0.06340   0.05806  -0.1511  0.2560  0.5000  -3.6450   0.0000   0.2934
  16.000   1.9229   0.07921   0.07400  -0.1467  0.2153  0.5000  -3.7786   0.0000   0.2899
  17.000   1.8994   0.09418   0.08910  -0.1448  0.1835  0.5000  -3.9904   0.0000   0.2871


