xflr5 v6.10.03

 Calculated polar for: E423

 1 1 Reynolds number fixed          Mach number fixed         

 xtrf =   0.500 (top)        0.500 (bottom)
 Mach =   0.000     Re =     0.140 e 6     Ncrit =   9.000

  alpha     CL        CD       CDp       Cm    Top Xtr Bot Xtr   Cpmin    Chinge    XCp    
 ------- -------- --------- --------- -------- ------- ------- -------- --------- ---------
  -5.000   0.3898   0.07272   0.06571  -0.1500  0.5000  0.0749  -1.1487   0.0000   0.6464
  -3.000   0.4839   0.05090   0.04411  -0.1517  0.5000  0.0932  -1.0638   0.0000   0.5681
   0.000   0.9732   0.02125   0.01181  -0.2118  0.5000  0.1677  -1.3461   0.0000   0.4652
   1.000   1.0810   0.02049   0.01080  -0.2117  0.5000  0.2185  -1.4330   0.0000   0.4416
   2.000   1.1853   0.02016   0.01036  -0.2110  0.5000  0.2691  -1.5180   0.0000   0.4220
   3.000   1.2868   0.02039   0.01067  -0.2098  0.5000  0.3324  -1.6091   0.0000   0.4054
   4.000   1.3859   0.02085   0.01148  -0.2083  0.5000  0.5000  -1.7018   0.0000   0.3909
   5.000   1.4744   0.02233   0.01293  -0.2050  0.5000  0.5000  -1.7944   0.0000   0.3778
   6.000   1.5560   0.02423   0.01501  -0.2010  0.5000  0.5000  -1.8984   0.0000   0.3661
   7.000   1.6296   0.02678   0.01786  -0.1963  0.5000  0.5000  -2.0163   0.0000   0.3555
   8.000   1.6863   0.03077   0.02231  -0.1900  0.5000  0.5000  -2.1372   0.0000   0.3458
  10.000   1.3748   0.08890   0.08181  -0.1588  0.4456  0.5000  -1.8239   0.0000   0.3451
  11.000   1.3807   0.09908   0.09220  -0.1555  0.4120  0.5000  -1.8825   0.0000   0.3401
  12.000   1.5129   0.09149   0.08483  -0.1515  0.4056  0.5000  -2.1869   0.0000   0.3250
  13.000   1.5031   0.10390   0.09750  -0.1490  0.3681  0.5000  -2.2590   0.0000   0.3216
  14.000   1.6548   0.09220   0.08609  -0.1447  0.3604  0.5000  -2.6922   0.0000   0.3071
  15.000   1.6603   0.10223   0.09641  -0.1426  0.3263  0.5000  -2.8497   0.0000   0.3029
  16.000   1.6870   0.10945   0.10388  -0.1410  0.2925  0.5000  -3.1000   0.0000   0.2979
  17.000   1.7431   0.11208   0.10667  -0.1389  0.2607  0.5000  -3.4443   0.0000   0.2912


