xflr5 v6.10.03

 Calculated polar for: E423

 1 1 Reynolds number fixed          Mach number fixed         

 xtrf =   0.500 (top)        0.500 (bottom)
 Mach =   0.080     Re =     0.280 e 6     Ncrit =   9.000

  alpha     CL        CD       CDp       Cm    Top Xtr Bot Xtr   Cpmin    Chinge    XCp    
 ------- -------- --------- --------- -------- ------- ------- -------- --------- ---------
  -5.000   0.4168   0.06460   0.05885  -0.1542  0.5000  0.0487  -1.1668   0.0000   0.6313
  -4.000   0.4769   0.05502   0.04933  -0.1618  0.5000  0.0493  -1.2333   0.0000   0.5967
  -3.000   0.6795   0.02008   0.01301  -0.2171  0.5000  0.0418  -2.2962   0.0000   0.5735
  -2.000   0.8101   0.01618   0.00814  -0.2227  0.5000  0.0660  -1.7716   0.0000   0.5264
  -1.000   0.9227   0.01533   0.00701  -0.2228  0.5000  0.1011  -1.3043   0.0000   0.4910
   0.000   1.0297   0.01528   0.00689  -0.2219  0.5000  0.1403  -1.3882   0.0000   0.4630
   1.000   1.1367   0.01517   0.00677  -0.2211  0.5000  0.1813  -1.4778   0.0000   0.4403
   2.000   1.2433   0.01515   0.00677  -0.2205  0.5000  0.2224  -1.5672   0.0000   0.4213
   3.000   1.3476   0.01543   0.00721  -0.2195  0.5000  0.2746  -1.6630   0.0000   0.4051
   5.000   1.5509   0.01659   0.00897  -0.2171  0.5000  0.5000  -1.8655   0.0000   0.3787
   6.000   1.6472   0.01775   0.01028  -0.2152  0.5000  0.5000  -1.9886   0.0000   0.3675
   7.000   1.7416   0.01925   0.01204  -0.2132  0.5000  0.5000  -2.1343   0.0000   0.3574
   8.000   1.8330   0.02141   0.01457  -0.2113  0.5000  0.5000  -2.3050   0.0000   0.3484
   9.000   1.8988   0.02388   0.01739  -0.2049  0.4887  0.5000  -2.4835   0.0000   0.3390
  10.000   1.9348   0.02587   0.01970  -0.1934  0.4687  0.5000  -2.6571   0.0000   0.3289
  11.000   1.9803   0.02854   0.02248  -0.1848  0.4434  0.5000  -2.8732   0.0000   0.3200
  12.000   1.9919   0.03348   0.02759  -0.1734  0.4141  0.5000  -3.0636   0.0000   0.3113
  13.000   1.9834   0.04164   0.03600  -0.1629  0.3794  0.5000  -3.2323   0.0000   0.3039
  14.000   1.9672   0.05231   0.04681  -0.1545  0.3395  0.5000  -3.4192   0.0000   0.2977
  15.000   1.9327   0.06626   0.06076  -0.1479  0.2933  0.5000  -3.5633   0.0000   0.2930
  16.000   1.9009   0.08086   0.07538  -0.1436  0.2512  0.5000  -3.7065   0.0000   0.2893
  17.000   1.8720   0.09623   0.09094  -0.1416  0.2124  0.5000  -3.8924   0.0000   0.2866


