xflr5 v6.10.03

 Calculated polar for: E423

 1 1 Reynolds number fixed          Mach number fixed         

 xtrf =   0.500 (top)        0.500 (bottom)
 Mach =   0.000     Re =     0.420 e 6     Ncrit =   9.000

  alpha     CL        CD       CDp       Cm    Top Xtr Bot Xtr   Cpmin    Chinge    XCp    
 ------- -------- --------- --------- -------- ------- ------- -------- --------- ---------
  -5.000   0.4258   0.05994   0.05480  -0.1573  0.5000  0.0289  -1.3171   0.0000   0.6308
  -3.000   0.7168   0.01400   0.00659  -0.2260  0.5000  0.0372  -2.5374   0.0000   0.5694
  -2.000   0.8308   0.01296   0.00526  -0.2266  0.5000  0.0604  -1.8192   0.0000   0.5243
  -1.000   0.9403   0.01271   0.00500  -0.2261  0.5000  0.0966  -1.3109   0.0000   0.4899
   0.000   1.0477   0.01273   0.00502  -0.2253  0.5000  0.1339  -1.3956   0.0000   0.4626
   1.000   1.1544   0.01281   0.00515  -0.2245  0.5000  0.1698  -1.4856   0.0000   0.4402
   2.000   1.2603   0.01299   0.00536  -0.2236  0.5000  0.2032  -1.5751   0.0000   0.4214
   3.000   1.3644   0.01332   0.00583  -0.2226  0.5000  0.2438  -1.6717   0.0000   0.4054
   4.000   1.4687   0.01365   0.00651  -0.2219  0.5000  0.3486  -1.7714   0.0000   0.3916
   5.000   1.5714   0.01419   0.00740  -0.2211  0.5000  0.5000  -1.8775   0.0000   0.3794
   6.000   1.6716   0.01511   0.00846  -0.2199  0.5000  0.5000  -2.0058   0.0000   0.3684
   7.000   1.7733   0.01632   0.00990  -0.2194  0.5000  0.5000  -2.1602   0.0000   0.3587
   8.000   1.8578   0.01763   0.01144  -0.2156  0.4896  0.5000  -2.3331   0.0000   0.3491
   9.000   1.9173   0.01877   0.01281  -0.2072  0.4728  0.5000  -2.5119   0.0000   0.3391
  10.000   1.9726   0.02076   0.01483  -0.1990  0.4466  0.5000  -2.7126   0.0000   0.3297
  11.000   2.0099   0.02358   0.01789  -0.1890  0.4233  0.5000  -2.9228   0.0000   0.3206
  12.000   2.0296   0.02842   0.02288  -0.1783  0.3919  0.5000  -3.1364   0.0000   0.3121
  13.000   2.0283   0.03592   0.03047  -0.1678  0.3546  0.5000  -3.3347   0.0000   0.3045
  14.000   2.0029   0.04725   0.04185  -0.1583  0.3096  0.5000  -3.5067   0.0000   0.2982
  15.000   1.9641   0.06188   0.05654  -0.1511  0.2665  0.5000  -3.6420   0.0000   0.2934
  16.000   1.9260   0.07733   0.07214  -0.1465  0.2252  0.5000  -3.7825   0.0000   0.2898
  17.000   1.8981   0.09271   0.08763  -0.1443  0.1915  0.5000  -3.9791   0.0000   0.2869


