xflr5 v6.10.03

 Calculated polar for: E423

 1 1 Reynolds number fixed          Mach number fixed         

 xtrf =   0.500 (top)        0.500 (bottom)
 Mach =   0.080     Re =     0.180 e 6     Ncrit =   9.000

  alpha     CL        CD       CDp       Cm    Top Xtr Bot Xtr   Cpmin    Chinge    XCp    
 ------- -------- --------- --------- -------- ------- ------- -------- --------- ---------
  -5.000   0.3862   0.06481   0.05833  -0.1450  0.5000  0.0567  -1.1383   0.0000   0.6375
  -4.000   0.4388   0.05786   0.05148  -0.1510  0.5000  0.0704  -1.1204   0.0000   0.6018
  -3.000   0.5597   0.04848   0.04189  -0.1720  0.5000  0.0753  -1.1939   0.0000   0.5614
  -2.000   0.7595   0.02374   0.01581  -0.2106  0.5000  0.0743  -1.5937   0.0000   0.5288
  -1.000   0.8957   0.01899   0.00999  -0.2179  0.5000  0.1121  -1.2871   0.0000   0.4927
   0.000   1.0039   0.01845   0.00927  -0.2175  0.5000  0.1564  -1.3704   0.0000   0.4642
   1.000   1.1100   0.01813   0.00885  -0.2167  0.5000  0.2027  -1.4581   0.0000   0.4410
   2.000   1.2142   0.01810   0.00877  -0.2156  0.5000  0.2471  -1.5446   0.0000   0.4216
   3.000   1.3159   0.01837   0.00918  -0.2143  0.5000  0.3055  -1.6373   0.0000   0.4051
   4.000   1.4178   0.01872   0.01004  -0.2132  0.5000  0.5000  -1.7334   0.0000   0.3909
   5.000   1.5112   0.01996   0.01126  -0.2105  0.5000  0.5000  -1.8313   0.0000   0.3781
   6.000   1.5999   0.02151   0.01298  -0.2074  0.5000  0.5000  -1.9445   0.0000   0.3666
   7.000   1.6829   0.02355   0.01531  -0.2038  0.5000  0.5000  -2.0753   0.0000   0.3561
   8.000   1.7557   0.02655   0.01873  -0.1992  0.5000  0.5000  -2.2195   0.0000   0.3466
   9.000   1.7888   0.03273   0.02551  -0.1902  0.5000  0.5000  -2.3395   0.0000   0.3376
  10.000   1.5572   0.06184   0.05534  -0.1623  0.4605  0.5000  -2.1123   0.0000   0.3332
  11.000   1.7542   0.04979   0.04338  -0.1645  0.4568  0.5000  -2.5006   0.0000   0.3206
  12.000   1.6865   0.06627   0.06025  -0.1544  0.4180  0.5000  -2.5090   0.0000   0.3159
  13.000   1.8590   0.05615   0.05015  -0.1546  0.4013  0.5000  -2.9727   0.0000   0.3051
  14.000   1.8833   0.06240   0.05650  -0.1492  0.3652  0.5000  -3.2074   0.0000   0.2985
  15.000   1.8762   0.07282   0.06704  -0.1440  0.3237  0.5000  -3.4090   0.0000   0.2934
  16.000   1.8770   0.08309   0.07729  -0.1402  0.2792  0.5000  -3.6288   0.0000   0.2886
  17.000   1.8652   0.09556   0.09000  -0.1379  0.2390  0.5000  -3.8504   0.0000   0.2851


