xflr5 v6.10.03

 Calculated polar for: E423

 1 1 Reynolds number fixed          Mach number fixed         

 xtrf =   0.500 (top)        0.500 (bottom)
 Mach =   0.080     Re =     0.220 e 6     Ncrit =   9.000

  alpha     CL        CD       CDp       Cm    Top Xtr Bot Xtr   Cpmin    Chinge    XCp    
 ------- -------- --------- --------- -------- ------- ------- -------- --------- ---------
  -5.000   0.4136   0.06676   0.06059  -0.1549  0.5000  0.0494  -1.2152   0.0000   0.6358
  -4.000   0.4456   0.05359   0.04756  -0.1565  0.5000  0.0544  -1.2780   0.0000   0.6090
  -3.000   0.5288   0.04454   0.03848  -0.1650  0.5000  0.0616  -1.1971   0.0000   0.5664
  -2.000   0.7896   0.01935   0.01128  -0.2181  0.5000  0.0709  -1.6963   0.0000   0.5278
  -1.000   0.9075   0.01756   0.00893  -0.2199  0.5000  0.1049  -1.2951   0.0000   0.4917
   0.000   1.0145   0.01736   0.00857  -0.2190  0.5000  0.1437  -1.3782   0.0000   0.4633
   1.000   1.1216   0.01703   0.00817  -0.2184  0.5000  0.1868  -1.4671   0.0000   0.4404
   2.000   1.2282   0.01675   0.00786  -0.2179  0.5000  0.2330  -1.5557   0.0000   0.4214
   3.000   1.3314   0.01697   0.00823  -0.2167  0.5000  0.2878  -1.6500   0.0000   0.4051
   4.000   1.4354   0.01721   0.00903  -0.2162  0.5000  0.5000  -1.7484   0.0000   0.3911
   5.000   1.5318   0.01829   0.01009  -0.2139  0.5000  0.5000  -1.8491   0.0000   0.3784
   6.000   1.6242   0.01963   0.01160  -0.2113  0.5000  0.5000  -1.9672   0.0000   0.3670
   7.000   1.7131   0.02137   0.01361  -0.2085  0.5000  0.5000  -2.1058   0.0000   0.3568
   8.000   1.7962   0.02386   0.01649  -0.2053  0.5000  0.5000  -2.2643   0.0000   0.3475
   9.000   1.8549   0.02840   0.02161  -0.1993  0.5000  0.5000  -2.4216   0.0000   0.3387
  10.000   1.8590   0.03287   0.02647  -0.1847  0.4791  0.5000  -2.5446   0.0000   0.3284
  11.000   1.9353   0.03338   0.02705  -0.1800  0.4551  0.5000  -2.7951   0.0000   0.3198
  12.000   1.9101   0.04152   0.03561  -0.1662  0.4270  0.5000  -2.9028   0.0000   0.3114
  13.000   1.9312   0.04758   0.04182  -0.1589  0.3949  0.5000  -3.1227   0.0000   0.3041
  14.000   1.9266   0.05700   0.05133  -0.1517  0.3547  0.5000  -3.3170   0.0000   0.2980
  15.000   1.9067   0.06916   0.06360  -0.1459  0.3122  0.5000  -3.4914   0.0000   0.2931
  16.000   1.8814   0.08301   0.07752  -0.1420  0.2685  0.5000  -3.6480   0.0000   0.2893
  17.000   1.8622   0.09689   0.09164  -0.1400  0.2299  0.5000  -3.8504   0.0000   0.2862


