xflr5 v6.10.03

 Calculated polar for: E423

 1 1 Reynolds number fixed          Mach number fixed         

 xtrf =   0.500 (top)        0.500 (bottom)
 Mach =   0.080     Re =     0.160 e 6     Ncrit =   9.000

  alpha     CL        CD       CDp       Cm    Top Xtr Bot Xtr   Cpmin    Chinge    XCp    
 ------- -------- --------- --------- -------- ------- ------- -------- --------- ---------
  -5.000   0.3838   0.06667   0.05995  -0.1425  0.5000  0.0662  -1.0664   0.0000   0.6333
  -4.000   0.4611   0.06147   0.05477  -0.1586  0.5000  0.0751  -1.1630   0.0000   0.6014
  -3.000   0.5167   0.04722   0.04059  -0.1633  0.5000  0.0816  -1.1845   0.0000   0.5704
  -1.000   0.8827   0.02044   0.01141  -0.2154  0.5000  0.1160  -1.2793   0.0000   0.4935
   0.000   0.9913   0.01972   0.01043  -0.2152  0.5000  0.1608  -1.3621   0.0000   0.4646
   1.000   1.0987   0.01921   0.00975  -0.2147  0.5000  0.2093  -1.4500   0.0000   0.4412
   2.000   1.2031   0.01902   0.00948  -0.2138  0.5000  0.2572  -1.5361   0.0000   0.4217
   3.000   1.3045   0.01930   0.00989  -0.2125  0.5000  0.3180  -1.6280   0.0000   0.4051
   4.000   1.4053   0.01973   0.01074  -0.2112  0.5000  0.5000  -1.7229   0.0000   0.3908
   5.000   1.4961   0.02110   0.01208  -0.2081  0.5000  0.5000  -1.8182   0.0000   0.3778
   6.000   1.5816   0.02282   0.01398  -0.2045  0.5000  0.5000  -1.9273   0.0000   0.3662
   7.000   1.6609   0.02509   0.01655  -0.2004  0.5000  0.5000  -2.0529   0.0000   0.3557
   8.000   1.7250   0.02860   0.02050  -0.1947  0.5000  0.5000  -2.1852   0.0000   0.3461
   9.000   1.7118   0.03847   0.03109  -0.1813  0.5000  0.5000  -2.2415   0.0000   0.3372
  10.000   1.3535   0.09025   0.08355  -0.1588  0.4286  0.5000  -1.7980   0.0000   0.3469
  11.000   1.4522   0.08805   0.08151  -0.1555  0.4150  0.5000  -2.0116   0.0000   0.3342
  12.000   1.5951   0.07906   0.07273  -0.1523  0.4106  0.5000  -2.3400   0.0000   0.3200
  14.000   1.7847   0.07462   0.06870  -0.1462  0.3663  0.5000  -2.9845   0.0000   0.3013
  15.000   1.7930   0.08386   0.07814  -0.1425  0.3284  0.5000  -3.1951   0.0000   0.2962
  16.000   1.8127   0.09208   0.08649  -0.1398  0.2899  0.5000  -3.4524   0.0000   0.2911
  17.000   1.8194   0.10208   0.09670  -0.1381  0.2498  0.5000  -3.6972   0.0000   0.2871


