xflr5 v6.10.03

 Calculated polar for: E423

 1 1 Reynolds number fixed          Mach number fixed         

 xtrf =   0.500 (top)        0.500 (bottom)
 Mach =   0.000     Re =     0.240 e 6     Ncrit =   9.000

  alpha     CL        CD       CDp       Cm    Top Xtr Bot Xtr   Cpmin    Chinge    XCp    
 ------- -------- --------- --------- -------- ------- ------- -------- --------- ---------
  -5.000   0.4145   0.06593   0.05990  -0.1548  0.5000  0.0492  -1.1965   0.0000   0.6347
  -3.000   0.5753   0.03659   0.03042  -0.1823  0.5000  0.0436  -1.5807   0.0000   0.5712
  -2.000   0.7978   0.01793   0.00981  -0.2199  0.5000  0.0699  -1.7153   0.0000   0.5272
  -1.000   0.9124   0.01662   0.00806  -0.2208  0.5000  0.1041  -1.2937   0.0000   0.4914
   0.000   1.0188   0.01649   0.00783  -0.2198  0.5000  0.1429  -1.3765   0.0000   0.4633
   1.000   1.1251   0.01625   0.00753  -0.2191  0.5000  0.1856  -1.4651   0.0000   0.4405
   2.000   1.2313   0.01605   0.00735  -0.2186  0.5000  0.2303  -1.5534   0.0000   0.4215
   3.000   1.3347   0.01629   0.00772  -0.2176  0.5000  0.2846  -1.6479   0.0000   0.4053
   5.000   1.5356   0.01750   0.00950  -0.2150  0.5000  0.5000  -1.8472   0.0000   0.3788
   6.000   1.6298   0.01873   0.01088  -0.2128  0.5000  0.5000  -1.9673   0.0000   0.3675
   7.000   1.7209   0.02030   0.01272  -0.2104  0.5000  0.5000  -2.1084   0.0000   0.3573
   8.000   1.8082   0.02252   0.01530  -0.2080  0.5000  0.5000  -2.2723   0.0000   0.3481
   9.000   1.8895   0.02595   0.01917  -0.2053  0.4955  0.5000  -2.4621   0.0000   0.3398
  10.000   1.9016   0.02897   0.02266  -0.1905  0.4777  0.5000  -2.6009   0.0000   0.3292
  11.000   1.9715   0.03002   0.02368  -0.1850  0.4514  0.5000  -2.8498   0.0000   0.3206
  12.000   1.9562   0.03647   0.03057  -0.1708  0.4254  0.5000  -2.9881   0.0000   0.3117
  13.000   1.9601   0.04352   0.03781  -0.1615  0.3928  0.5000  -3.1770   0.0000   0.3043
  14.000   1.9521   0.05307   0.04745  -0.1536  0.3529  0.5000  -3.3756   0.0000   0.2980
  15.000   1.9238   0.06610   0.06058  -0.1471  0.3091  0.5000  -3.5312   0.0000   0.2931
  16.000   1.8949   0.08017   0.07471  -0.1428  0.2657  0.5000  -3.6793   0.0000   0.2892
  17.000   1.8714   0.09458   0.08935  -0.1406  0.2267  0.5000  -3.8797   0.0000   0.2862


