xflr5 v6.10.03

 Calculated polar for: E423

 1 1 Reynolds number fixed          Mach number fixed         

 xtrf =   0.500 (top)        0.500 (bottom)
 Mach =   0.080     Re =     0.380 e 6     Ncrit =   9.000

  alpha     CL        CD       CDp       Cm    Top Xtr Bot Xtr   Cpmin    Chinge    XCp    
 ------- -------- --------- --------- -------- ------- ------- -------- --------- ---------
  -5.000   0.4053   0.05652   0.05129  -0.1582  0.5000  0.0305  -1.5719   0.0000   0.6523
  -4.000   0.4553   0.04947   0.04432  -0.1591  0.5000  0.0352  -1.3794   0.0000   0.6073
  -2.000   0.8274   0.01360   0.00580  -0.2261  0.5000  0.0608  -1.8272   0.0000   0.5249
  -1.000   0.9377   0.01329   0.00543  -0.2257  0.5000  0.0968  -1.3136   0.0000   0.4901
   0.000   1.0455   0.01330   0.00543  -0.2248  0.5000  0.1349  -1.3986   0.0000   0.4626
   1.000   1.1526   0.01336   0.00553  -0.2240  0.5000  0.1718  -1.4890   0.0000   0.4401
   2.000   1.2590   0.01350   0.00571  -0.2232  0.5000  0.2080  -1.5789   0.0000   0.4213
   3.000   1.3635   0.01384   0.00618  -0.2222  0.5000  0.2528  -1.6758   0.0000   0.4052
   4.000   1.4677   0.01422   0.00690  -0.2213  0.5000  0.3553  -1.7756   0.0000   0.3913
   5.000   1.5701   0.01480   0.00784  -0.2204  0.5000  0.5000  -1.8818   0.0000   0.3791
   6.000   1.6698   0.01580   0.00898  -0.2190  0.5000  0.5000  -2.0095   0.0000   0.3680
   7.000   1.7702   0.01710   0.01052  -0.2181  0.5000  0.5000  -2.1626   0.0000   0.3582
   8.000   1.8622   0.01876   0.01242  -0.2159  0.4914  0.5000  -2.3415   0.0000   0.3490
   9.000   1.9155   0.01999   0.01394  -0.2063  0.4763  0.5000  -2.5126   0.0000   0.3387
  10.000   1.9745   0.02186   0.01581  -0.1985  0.4481  0.5000  -2.7182   0.0000   0.3294
  11.000   2.0045   0.02495   0.01922  -0.1874  0.4272  0.5000  -2.9184   0.0000   0.3201
  12.000   2.0212   0.03005   0.02445  -0.1765  0.3963  0.5000  -3.1241   0.0000   0.3116
  13.000   2.0147   0.03810   0.03258  -0.1658  0.3580  0.5000  -3.3055   0.0000   0.3040
  14.000   1.9900   0.04967   0.04424  -0.1567  0.3144  0.5000  -3.4796   0.0000   0.2979
  15.000   1.9533   0.06422   0.05885  -0.1500  0.2710  0.5000  -3.6199   0.0000   0.2932
  16.000   1.9184   0.07937   0.07418  -0.1457  0.2303  0.5000  -3.7608   0.0000   0.2896
  17.000   1.8900   0.09487   0.08977  -0.1437  0.1948  0.5000  -3.9567   0.0000   0.2869


