xflr5 v6.10.03

 Calculated polar for: E423

 1 1 Reynolds number fixed          Mach number fixed         

 xtrf =   0.500 (top)        0.500 (bottom)
 Mach =   0.080     Re =     0.080 e 6     Ncrit =   9.000

  alpha     CL        CD       CDp       Cm    Top Xtr Bot Xtr   Cpmin    Chinge    XCp    
 ------- -------- --------- --------- -------- ------- ------- -------- --------- ---------
  -5.000   0.3084   0.08665   0.07857  -0.1334  0.5000  0.1067  -1.1690   0.0000   0.6956
  -4.000   0.3110   0.06996   0.06221  -0.1174  0.5000  0.1195  -1.0644   0.0000   0.6374
  -3.000   0.4199   0.06770   0.05974  -0.1394  0.5000  0.1437  -1.0865   0.0000   0.5866
  -2.000   0.4446   0.05290   0.04527  -0.1311  0.5000  0.1631  -1.0447   0.0000   0.5470
   0.000   0.8326   0.03128   0.02155  -0.1866  0.5000  0.1990  -1.2574   0.0000   0.4716
   1.000   0.9600   0.02868   0.01826  -0.1918  0.5000  0.2513  -1.3491   0.0000   0.4455
   2.000   1.0672   0.02816   0.01734  -0.1926  0.5000  0.3064  -1.4297   0.0000   0.4244
   3.000   1.1580   0.02895   0.01799  -0.1904  0.5000  0.3788  -1.5081   0.0000   0.4066
   4.000   1.2392   0.03060   0.01991  -0.1871  0.5000  0.5000  -1.5800   0.0000   0.3914
   5.000   1.2975   0.03470   0.02397  -0.1813  0.5000  0.5000  -1.6389   0.0000   0.3784
   6.000   1.3181   0.04276   0.03231  -0.1736  0.5000  0.5000  -1.6685   0.0000   0.3685
   7.000   1.1466   0.08201   0.07264  -0.1666  0.5000  0.5000  -1.4318   0.0000   0.3814
   8.000   1.0758   0.11050   0.10163  -0.1671  0.5000  0.5000  -1.3057   0.0000   0.3907
   9.000   1.0496   0.13162   0.12308  -0.1685  0.4998  0.5000  -1.2442   0.0000   0.3948
  10.000   1.0639   0.14069   0.13225  -0.1665  0.4616  0.5000  -1.2663   0.0000   0.3888
  11.000   1.0973   0.15001   0.14170  -0.1660  0.4293  0.5000  -1.3272   0.0000   0.3816
  12.000   1.2380   0.14786   0.13964  -0.1615  0.4062  0.5000  -1.6111   0.0000   0.3577
  13.000   1.2110   0.16263   0.15468  -0.1639  0.3693  0.5000  -1.5717   0.0000   0.3609
  14.000   1.2101   0.17562   0.16795  -0.1672  0.3371  0.5000  -1.5803   0.0000   0.3618
  15.000   1.2588   0.18300   0.17558  -0.1671  0.3088  0.5000  -1.7197   0.0000   0.3538
  16.000   1.3176   0.18762   0.18054  -0.1658  0.2835  0.5000  -1.9240   0.0000   0.3441
  17.000   1.2866   0.21025   0.20345  -0.1749  0.2533  0.5000  -1.8322   0.0000   0.3526


