xflr5 v6.10.03

 Calculated polar for: E423

 1 1 Reynolds number fixed          Mach number fixed         

 xtrf =   0.500 (top)        0.500 (bottom)
 Mach =   0.000     Re =     0.220 e 6     Ncrit =   9.000

  alpha     CL        CD       CDp       Cm    Top Xtr Bot Xtr   Cpmin    Chinge    XCp    
 ------- -------- --------- --------- -------- ------- ------- -------- --------- ---------
  -4.000   0.4456   0.05335   0.04731  -0.1567  0.5000  0.0545  -1.2780   0.0000   0.6095
  -3.000   0.5316   0.04400   0.03792  -0.1662  0.5000  0.0612  -1.2088   0.0000   0.5669
  -2.000   0.7894   0.01923   0.01112  -0.2180  0.5000  0.0716  -1.6847   0.0000   0.5277
  -1.000   0.9062   0.01752   0.00886  -0.2195  0.5000  0.1053  -1.2900   0.0000   0.4917
   0.000   1.0150   0.01696   0.00809  -0.2193  0.5000  0.1466  -1.3738   0.0000   0.4636
   1.000   1.1193   0.01698   0.00810  -0.2181  0.5000  0.1871  -1.4610   0.0000   0.4405
   2.000   1.2256   0.01667   0.00778  -0.2176  0.5000  0.2336  -1.5491   0.0000   0.4215
   3.000   1.3284   0.01687   0.00811  -0.2165  0.5000  0.2887  -1.6429   0.0000   0.4053
   4.000   1.4323   0.01709   0.00889  -0.2160  0.5000  0.5000  -1.7408   0.0000   0.3913
   5.000   1.5285   0.01814   0.00992  -0.2138  0.5000  0.5000  -1.8411   0.0000   0.3786
   6.000   1.6211   0.01944   0.01138  -0.2114  0.5000  0.5000  -1.9592   0.0000   0.3673
   7.000   1.7102   0.02110   0.01331  -0.2087  0.5000  0.5000  -2.0977   0.0000   0.3571
   8.000   1.7946   0.02344   0.01604  -0.2058  0.5000  0.5000  -2.2574   0.0000   0.3478
   9.000   1.8598   0.02752   0.02067  -0.2007  0.5000  0.5000  -2.4229   0.0000   0.3391
  10.000   1.8717   0.03173   0.02529  -0.1870  0.4812  0.5000  -2.5569   0.0000   0.3290
  11.000   1.9337   0.03285   0.02653  -0.1805  0.4574  0.5000  -2.7876   0.0000   0.3202
  12.000   1.9214   0.03989   0.03395  -0.1678  0.4296  0.5000  -2.9203   0.0000   0.3117
  13.000   1.9464   0.04526   0.03943  -0.1604  0.3975  0.5000  -3.1476   0.0000   0.3043
  14.000   1.9435   0.05411   0.04837  -0.1528  0.3573  0.5000  -3.3532   0.0000   0.2979
  15.000   1.9185   0.06663   0.06100  -0.1464  0.3147  0.5000  -3.5155   0.0000   0.2929
  16.000   1.8880   0.08087   0.07533  -0.1421  0.2712  0.5000  -3.6590   0.0000   0.2891
  17.000   1.8686   0.09465   0.08935  -0.1399  0.2321  0.5000  -3.8670   0.0000   0.2859


