xflr5 v6.10.03

 Calculated polar for: E423

 1 1 Reynolds number fixed          Mach number fixed         

 xtrf =   0.500 (top)        0.500 (bottom)
 Mach =   0.000     Re =     0.400 e 6     Ncrit =   9.000

  alpha     CL        CD       CDp       Cm    Top Xtr Bot Xtr   Cpmin    Chinge    XCp    
 ------- -------- --------- --------- -------- ------- ------- -------- --------- ---------
  -5.000   0.4242   0.06014   0.05493  -0.1572  0.5000  0.0289  -1.3296   0.0000   0.6319
  -3.000   0.7139   0.01442   0.00700  -0.2254  0.5000  0.0377  -2.5196   0.0000   0.5698
  -2.000   0.8286   0.01324   0.00549  -0.2262  0.5000  0.0611  -1.8154   0.0000   0.5246
  -1.000   0.9382   0.01297   0.00518  -0.2257  0.5000  0.0972  -1.3096   0.0000   0.4900
   0.000   1.0455   0.01299   0.00519  -0.2249  0.5000  0.1348  -1.3942   0.0000   0.4626
   1.000   1.1522   0.01305   0.00530  -0.2241  0.5000  0.1712  -1.4841   0.0000   0.4402
   2.000   1.2581   0.01320   0.00549  -0.2232  0.5000  0.2062  -1.5735   0.0000   0.4214
   3.000   1.3623   0.01353   0.00595  -0.2222  0.5000  0.2494  -1.6700   0.0000   0.4054
   4.000   1.4663   0.01388   0.00665  -0.2215  0.5000  0.3527  -1.7694   0.0000   0.3916
   5.000   1.5686   0.01444   0.00755  -0.2206  0.5000  0.5000  -1.8752   0.0000   0.3794
   6.000   1.6685   0.01538   0.00863  -0.2194  0.5000  0.5000  -2.0029   0.0000   0.3684
   7.000   1.7693   0.01660   0.01009  -0.2187  0.5000  0.5000  -2.1564   0.0000   0.3586
   8.000   1.8589   0.01807   0.01180  -0.2160  0.4908  0.5000  -2.3335   0.0000   0.3493
   9.000   1.9155   0.01922   0.01321  -0.2071  0.4753  0.5000  -2.5086   0.0000   0.3391
  10.000   1.9730   0.02111   0.01511  -0.1992  0.4477  0.5000  -2.7124   0.0000   0.3298
  11.000   2.0075   0.02397   0.01826  -0.1887  0.4263  0.5000  -2.9183   0.0000   0.3206
  12.000   2.0257   0.02884   0.02326  -0.1779  0.3950  0.5000  -3.1286   0.0000   0.3121
  13.000   2.0231   0.03641   0.03091  -0.1672  0.3573  0.5000  -3.3222   0.0000   0.3045
  14.000   1.9984   0.04770   0.04227  -0.1578  0.3131  0.5000  -3.4955   0.0000   0.2982
  15.000   1.9606   0.06222   0.05685  -0.1508  0.2702  0.5000  -3.6328   0.0000   0.2934
  16.000   1.9237   0.07752   0.07232  -0.1462  0.2289  0.5000  -3.7748   0.0000   0.2897
  17.000   1.8949   0.09299   0.08789  -0.1440  0.1942  0.5000  -3.9681   0.0000   0.2869


