xflr5 v6.10.03

 Calculated polar for: E423

 1 1 Reynolds number fixed          Mach number fixed         

 xtrf =   0.500 (top)        0.500 (bottom)
 Mach =   0.080     Re =     0.480 e 6     Ncrit =   9.000

  alpha     CL        CD       CDp       Cm    Top Xtr Bot Xtr   Cpmin    Chinge    XCp    
 ------- -------- --------- --------- -------- ------- ------- -------- --------- ---------
  -5.000   0.4317   0.05961   0.05466  -0.1579  0.5000  0.0288  -1.2820   0.0000   0.6271
  -4.000   0.4686   0.04444   0.03957  -0.1668  0.5000  0.0244  -1.7303   0.0000   0.6139
  -3.000   0.7239   0.01318   0.00589  -0.2277  0.5000  0.0341  -2.5882   0.0000   0.5686
  -2.000   0.8372   0.01239   0.00486  -0.2279  0.5000  0.0554  -1.8377   0.0000   0.5239
  -1.000   0.9478   0.01209   0.00460  -0.2276  0.5000  0.0941  -1.3199   0.0000   0.4896
   0.000   1.0561   0.01211   0.00463  -0.2268  0.5000  0.1305  -1.4057   0.0000   0.4623
   1.000   1.1633   0.01224   0.00481  -0.2260  0.5000  0.1654  -1.4965   0.0000   0.4400
   2.000   1.2687   0.01254   0.00516  -0.2249  0.5000  0.1908  -1.5864   0.0000   0.4212
   3.000   1.3742   0.01281   0.00558  -0.2240  0.5000  0.2358  -1.6844   0.0000   0.4053
   4.000   1.4793   0.01314   0.00622  -0.2233  0.5000  0.3329  -1.7852   0.0000   0.3915
   5.000   1.5832   0.01365   0.00711  -0.2226  0.5000  0.5000  -1.8927   0.0000   0.3793
   6.000   1.6853   0.01455   0.00816  -0.2217  0.5000  0.5000  -2.0236   0.0000   0.3684
   7.000   1.7900   0.01580   0.00960  -0.2216  0.4965  0.5000  -2.1820   0.0000   0.3588
   8.000   1.8610   0.01672   0.01074  -0.2148  0.4845  0.5000  -2.3442   0.0000   0.3484
   9.000   1.9225   0.01803   0.01214  -0.2067  0.4635  0.5000  -2.5259   0.0000   0.3384
  10.000   1.9787   0.02009   0.01439  -0.1987  0.4413  0.5000  -2.7284   0.0000   0.3292
  11.000   2.0099   0.02350   0.01784  -0.1878  0.4107  0.5000  -2.9306   0.0000   0.3200
  12.000   2.0362   0.02825   0.02277  -0.1782  0.3800  0.5000  -3.1556   0.0000   0.3117
  13.000   2.0342   0.03615   0.03078  -0.1679  0.3416  0.5000  -3.3529   0.0000   0.3042
  14.000   2.0027   0.04834   0.04296  -0.1582  0.2952  0.5000  -3.5130   0.0000   0.2981
  15.000   1.9607   0.06358   0.05823  -0.1512  0.2520  0.5000  -3.6420   0.0000   0.2935
  16.000   1.9215   0.07944   0.07422  -0.1469  0.2115  0.5000  -3.7752   0.0000   0.2901
  17.000   1.8997   0.09423   0.08914  -0.1450  0.1806  0.5000  -3.9920   0.0000   0.2871


