xflr5 v6.10.03

 Calculated polar for: E423

 1 1 Reynolds number fixed          Mach number fixed         

 xtrf =   0.500 (top)        0.500 (bottom)
 Mach =   0.080     Re =     0.260 e 6     Ncrit =   9.000

  alpha     CL        CD       CDp       Cm    Top Xtr Bot Xtr   Cpmin    Chinge    XCp    
 ------- -------- --------- --------- -------- ------- ------- -------- --------- ---------
  -4.000   0.4771   0.05535   0.04952  -0.1623  0.5000  0.0494  -1.2497   0.0000   0.5975
  -3.000   0.5736   0.03663   0.03064  -0.1815  0.5000  0.0414  -1.5737   0.0000   0.5708
  -2.000   0.8049   0.01700   0.00894  -0.2216  0.5000  0.0675  -1.7522   0.0000   0.5268
  -1.000   0.9187   0.01594   0.00751  -0.2221  0.5000  0.1023  -1.3019   0.0000   0.4912
   0.000   1.0255   0.01585   0.00734  -0.2211  0.5000  0.1415  -1.3854   0.0000   0.4631
   1.000   1.1324   0.01569   0.00714  -0.2203  0.5000  0.1833  -1.4747   0.0000   0.4403
   2.000   1.2390   0.01560   0.00708  -0.2197  0.5000  0.2259  -1.5639   0.0000   0.4213
   3.000   1.3431   0.01587   0.00750  -0.2187  0.5000  0.2790  -1.6594   0.0000   0.4051
   4.000   1.4467   0.01618   0.00830  -0.2180  0.5000  0.4511  -1.7579   0.0000   0.3912
   5.000   1.5455   0.01708   0.00929  -0.2162  0.5000  0.5000  -1.8608   0.0000   0.3786
   6.000   1.6408   0.01829   0.01065  -0.2141  0.5000  0.5000  -1.9826   0.0000   0.3674
   7.000   1.7335   0.01985   0.01248  -0.2119  0.5000  0.5000  -2.1263   0.0000   0.3572
   8.000   1.8225   0.02210   0.01509  -0.2096  0.5000  0.5000  -2.2932   0.0000   0.3481
   9.000   1.8952   0.02511   0.01850  -0.2048  0.4910  0.5000  -2.4765   0.0000   0.3392
  10.000   1.9196   0.02748   0.02126  -0.1917  0.4723  0.5000  -2.6340   0.0000   0.3288
  11.000   1.9776   0.02949   0.02330  -0.1847  0.4461  0.5000  -2.8668   0.0000   0.3201
  12.000   1.9767   0.03506   0.02917  -0.1719  0.4187  0.5000  -3.0330   0.0000   0.3113
  13.000   1.9690   0.04324   0.03761  -0.1617  0.3847  0.5000  -3.2021   0.0000   0.3039
  14.000   1.9545   0.05378   0.04827  -0.1537  0.3449  0.5000  -3.3872   0.0000   0.2978
  15.000   1.9258   0.06706   0.06160  -0.1474  0.2997  0.5000  -3.5439   0.0000   0.2930
  16.000   1.8970   0.08126   0.07582  -0.1432  0.2570  0.5000  -3.6942   0.0000   0.2892
  17.000   1.8707   0.09620   0.09097  -0.1411  0.2184  0.5000  -3.8853   0.0000   0.2864


