xflr5 v6.10.03

 Calculated polar for: E423

 1 1 Reynolds number fixed          Mach number fixed         

 xtrf =   0.500 (top)        0.500 (bottom)
 Mach =   0.080     Re =     0.300 e 6     Ncrit =   9.000

  alpha     CL        CD       CDp       Cm    Top Xtr Bot Xtr   Cpmin    Chinge    XCp    
 ------- -------- --------- --------- -------- ------- ------- -------- --------- ---------
  -4.000   0.4765   0.05471   0.04914  -0.1614  0.5000  0.0491  -1.2200   0.0000   0.5962
  -3.000   0.6900   0.01837   0.01114  -0.2200  0.5000  0.0408  -2.3696   0.0000   0.5728
  -2.000   0.8143   0.01549   0.00749  -0.2236  0.5000  0.0646  -1.7882   0.0000   0.5261
  -1.000   0.9262   0.01481   0.00659  -0.2235  0.5000  0.1000  -1.3065   0.0000   0.4908
   0.000   1.0335   0.01479   0.00651  -0.2226  0.5000  0.1391  -1.3907   0.0000   0.4629
   1.000   1.1406   0.01472   0.00645  -0.2218  0.5000  0.1792  -1.4805   0.0000   0.4402
   2.000   1.2472   0.01474   0.00651  -0.2211  0.5000  0.2191  -1.5700   0.0000   0.4213
   3.000   1.3515   0.01503   0.00695  -0.2201  0.5000  0.2704  -1.6662   0.0000   0.4051
   4.000   1.4550   0.01540   0.00772  -0.2193  0.5000  0.4029  -1.7650   0.0000   0.3912
   5.000   1.5556   0.01616   0.00870  -0.2179  0.5000  0.5000  -1.8695   0.0000   0.3788
   6.000   1.6529   0.01727   0.00996  -0.2161  0.5000  0.5000  -1.9938   0.0000   0.3676
   7.000   1.7487   0.01872   0.01166  -0.2144  0.5000  0.5000  -2.1414   0.0000   0.3576
   8.000   1.8422   0.02081   0.01412  -0.2129  0.5000  0.5000  -2.3158   0.0000   0.3486
   9.000   1.9022   0.02285   0.01648  -0.2051  0.4862  0.5000  -2.4900   0.0000   0.3389
  10.000   1.9468   0.02459   0.01845  -0.1949  0.4650  0.5000  -2.6755   0.0000   0.3290
  11.000   1.9843   0.02768   0.02172  -0.1851  0.4403  0.5000  -2.8815   0.0000   0.3199
  12.000   2.0032   0.03232   0.02642  -0.1745  0.4083  0.5000  -3.0861   0.0000   0.3114
  13.000   1.9933   0.04049   0.03484  -0.1637  0.3741  0.5000  -3.2536   0.0000   0.3039
  14.000   1.9759   0.05129   0.04577  -0.1552  0.3338  0.5000  -3.4416   0.0000   0.2977
  15.000   1.9356   0.06593   0.06040  -0.1483  0.2868  0.5000  -3.5725   0.0000   0.2930
  16.000   1.9023   0.08076   0.07526  -0.1440  0.2447  0.5000  -3.7119   0.0000   0.2894
  17.000   1.8730   0.09626   0.09094  -0.1420  0.2057  0.5000  -3.8976   0.0000   0.2867


