xflr5 v6.10.03

 Calculated polar for: E423

 1 1 Reynolds number fixed          Mach number fixed         

 xtrf =   0.500 (top)        0.500 (bottom)
 Mach =   0.000     Re =     0.480 e 6     Ncrit =   9.000

  alpha     CL        CD       CDp       Cm    Top Xtr Bot Xtr   Cpmin    Chinge    XCp    
 ------- -------- --------- --------- -------- ------- ------- -------- --------- ---------
  -5.000   0.4306   0.05939   0.05445  -0.1580  0.5000  0.0288  -1.2861   0.0000   0.6282
  -4.000   0.4706   0.04375   0.03887  -0.1681  0.5000  0.0243  -1.7583   0.0000   0.6151
  -3.000   0.7237   0.01307   0.00575  -0.2274  0.5000  0.0353  -2.5711   0.0000   0.5683
  -2.000   0.8363   0.01229   0.00475  -0.2276  0.5000  0.0578  -1.8242   0.0000   0.5238
  -1.000   0.9459   0.01207   0.00456  -0.2272  0.5000  0.0951  -1.3144   0.0000   0.4896
   0.000   1.0537   0.01208   0.00459  -0.2264  0.5000  0.1314  -1.3995   0.0000   0.4624
   1.000   1.1605   0.01219   0.00477  -0.2256  0.5000  0.1663  -1.4898   0.0000   0.4401
   2.000   1.2656   0.01247   0.00508  -0.2245  0.5000  0.1923  -1.5792   0.0000   0.4214
   3.000   1.3705   0.01275   0.00551  -0.2237  0.5000  0.2360  -1.6764   0.0000   0.4055
   4.000   1.4752   0.01306   0.00614  -0.2230  0.5000  0.3365  -1.7766   0.0000   0.3917
   5.000   1.5785   0.01355   0.00701  -0.2223  0.5000  0.5000  -1.8834   0.0000   0.3796
   6.000   1.6801   0.01443   0.00802  -0.2214  0.5000  0.5000  -2.0134   0.0000   0.3687
   7.000   1.7836   0.01560   0.00940  -0.2212  0.4986  0.5000  -2.1703   0.0000   0.3590
   8.000   1.8573   0.01655   0.01056  -0.2151  0.4855  0.5000  -2.3347   0.0000   0.3488
   9.000   1.9198   0.01778   0.01189  -0.2073  0.4652  0.5000  -2.5174   0.0000   0.3389
  10.000   1.9758   0.01979   0.01406  -0.1993  0.4424  0.5000  -2.7195   0.0000   0.3297
  11.000   2.0104   0.02291   0.01726  -0.1889  0.4134  0.5000  -2.9257   0.0000   0.3205
  12.000   2.0374   0.02744   0.02197  -0.1792  0.3826  0.5000  -3.1530   0.0000   0.3122
  13.000   2.0388   0.03486   0.02946  -0.1689  0.3439  0.5000  -3.3600   0.0000   0.3046
  14.000   2.0100   0.04645   0.04107  -0.1590  0.2983  0.5000  -3.5254   0.0000   0.2983
  15.000   1.9660   0.06174   0.05638  -0.1517  0.2549  0.5000  -3.6489   0.0000   0.2936
  16.000   1.9268   0.07745   0.07222  -0.1471  0.2145  0.5000  -3.7879   0.0000   0.2900
  17.000   1.9032   0.09235   0.08726  -0.1450  0.1832  0.5000  -3.9979   0.0000   0.2871


