xflr5 v6.10.03

 Calculated polar for: E423

 1 1 Reynolds number fixed          Mach number fixed         

 xtrf =   0.500 (top)        0.500 (bottom)
 Mach =   0.000     Re =     0.520 e 6     Ncrit =   9.000

  alpha     CL        CD       CDp       Cm    Top Xtr Bot Xtr   Cpmin    Chinge    XCp    
 ------- -------- --------- --------- -------- ------- ------- -------- --------- ---------
  -5.000   0.4337   0.05908   0.05424  -0.1585  0.5000  0.0287  -1.2686   0.0000   0.6267
  -4.000   0.4744   0.04269   0.03791  -0.1699  0.5000  0.0229  -1.8109   0.0000   0.6161
  -3.000   0.7267   0.01272   0.00548  -0.2280  0.5000  0.0335  -2.5762   0.0000   0.5678
  -2.000   0.8389   0.01203   0.00461  -0.2281  0.5000  0.0541  -1.8194   0.0000   0.5235
  -1.000   0.9492   0.01171   0.00433  -0.2278  0.5000  0.0941  -1.3164   0.0000   0.4895
   0.000   1.0571   0.01172   0.00436  -0.2270  0.5000  0.1298  -1.4018   0.0000   0.4623
   1.000   1.1640   0.01186   0.00456  -0.2262  0.5000  0.1640  -1.4923   0.0000   0.4401
   2.000   1.2687   0.01219   0.00495  -0.2251  0.5000  0.1871  -1.5816   0.0000   0.4214
   3.000   1.3743   0.01240   0.00530  -0.2244  0.5000  0.2349  -1.6794   0.0000   0.4055
   4.000   1.4789   0.01273   0.00593  -0.2237  0.5000  0.3282  -1.7796   0.0000   0.3918
   5.000   1.5826   0.01319   0.00679  -0.2231  0.5000  0.5000  -1.8868   0.0000   0.3797
   6.000   1.6849   0.01404   0.00777  -0.2223  0.5000  0.5000  -2.0177   0.0000   0.3688
   7.000   1.7892   0.01523   0.00911  -0.2222  0.4928  0.5000  -2.1760   0.0000   0.3592
   8.000   1.8586   0.01597   0.01009  -0.2151  0.4824  0.5000  -2.3373   0.0000   0.3487
   9.000   1.9185   0.01739   0.01153  -0.2069  0.4593  0.5000  -2.5167   0.0000   0.3388
  10.000   1.9799   0.01922   0.01359  -0.1998  0.4388  0.5000  -2.7267   0.0000   0.3297
  11.000   2.0119   0.02258   0.01693  -0.1890  0.4055  0.5000  -2.9288   0.0000   0.3205
  12.000   2.0384   0.02715   0.02169  -0.1794  0.3763  0.5000  -3.1559   0.0000   0.3122
  13.000   2.0381   0.03478   0.02938  -0.1690  0.3361  0.5000  -3.3599   0.0000   0.3047
  14.000   2.0078   0.04661   0.04121  -0.1590  0.2905  0.5000  -3.5215   0.0000   0.2984
  15.000   1.9617   0.06226   0.05688  -0.1517  0.2464  0.5000  -3.6395   0.0000   0.2938
  16.000   1.9255   0.07769   0.07246  -0.1473  0.2070  0.5000  -3.7852   0.0000   0.2902
  17.000   1.9029   0.09249   0.08739  -0.1453  0.1775  0.5000  -3.9983   0.0000   0.2872


