xflr5 v6.10.03

 Calculated polar for: E423

 1 1 Reynolds number fixed          Mach number fixed         

 xtrf =   0.500 (top)        0.500 (bottom)
 Mach =   0.080     Re =     0.360 e 6     Ncrit =   9.000

  alpha     CL        CD       CDp       Cm    Top Xtr Bot Xtr   Cpmin    Chinge    XCp    
 ------- -------- --------- --------- -------- ------- ------- -------- --------- ---------
  -5.000   0.4015   0.05783   0.05253  -0.1548  0.5000  0.0324  -1.4354   0.0000   0.6476
  -4.000   0.4530   0.05140   0.04617  -0.1562  0.5000  0.0396  -1.2531   0.0000   0.6026
  -3.000   0.7072   0.01557   0.00818  -0.2242  0.5000  0.0383  -2.4921   0.0000   0.5711
  -2.000   0.8247   0.01397   0.00612  -0.2256  0.5000  0.0616  -1.8204   0.0000   0.5251
  -1.000   0.9352   0.01361   0.00566  -0.2252  0.5000  0.0975  -1.3120   0.0000   0.4903
   0.000   1.0429   0.01362   0.00565  -0.2243  0.5000  0.1358  -1.3969   0.0000   0.4627
   1.000   1.1500   0.01364   0.00571  -0.2235  0.5000  0.1734  -1.4871   0.0000   0.4401
   2.000   1.2565   0.01376   0.00588  -0.2227  0.5000  0.2107  -1.5770   0.0000   0.4213
   3.000   1.3610   0.01409   0.00634  -0.2217  0.5000  0.2578  -1.6738   0.0000   0.4052
   4.000   1.4650   0.01448   0.00707  -0.2209  0.5000  0.3683  -1.7734   0.0000   0.3913
   5.000   1.5669   0.01510   0.00802  -0.2198  0.5000  0.5000  -1.8791   0.0000   0.3790
   6.000   1.6660   0.01611   0.00919  -0.2183  0.5000  0.5000  -2.0060   0.0000   0.3679
   7.000   1.7655   0.01744   0.01076  -0.2173  0.5000  0.5000  -2.1581   0.0000   0.3581
   8.000   1.8638   0.01933   0.01290  -0.2165  0.4924  0.5000  -2.3422   0.0000   0.3492
   9.000   1.9127   0.02057   0.01445  -0.2060  0.4787  0.5000  -2.5080   0.0000   0.3387
  10.000   1.9671   0.02237   0.01627  -0.1974  0.4524  0.5000  -2.7069   0.0000   0.3292
  11.000   1.9998   0.02551   0.01975  -0.1868  0.4304  0.5000  -2.9100   0.0000   0.3200
  12.000   2.0170   0.03054   0.02488  -0.1760  0.3991  0.5000  -3.1154   0.0000   0.3115
  13.000   2.0094   0.03861   0.03301  -0.1652  0.3600  0.5000  -3.2929   0.0000   0.3039
  14.000   1.9849   0.05017   0.04467  -0.1562  0.3174  0.5000  -3.4668   0.0000   0.2978
  15.000   1.9484   0.06470   0.05929  -0.1496  0.2741  0.5000  -3.6070   0.0000   0.2932
  16.000   1.9147   0.07969   0.07447  -0.1453  0.2338  0.5000  -3.7485   0.0000   0.2896
  17.000   1.8860   0.09522   0.09009  -0.1433  0.1974  0.5000  -3.9429   0.0000   0.2869


