xflr5 v6.10.03

 Calculated polar for: E423

 1 1 Reynolds number fixed          Mach number fixed         

 xtrf =   0.500 (top)        0.500 (bottom)
 Mach =   0.000     Re =     0.180 e 6     Ncrit =   9.000

  alpha     CL        CD       CDp       Cm    Top Xtr Bot Xtr   Cpmin    Chinge    XCp    
 ------- -------- --------- --------- -------- ------- ------- -------- --------- ---------
  -5.000   0.3847   0.06464   0.05815  -0.1449  0.5000  0.0567  -1.1412   0.0000   0.6389
  -4.000   0.4528   0.05865   0.05221  -0.1561  0.5000  0.0733  -1.1451   0.0000   0.6023
  -2.000   0.7593   0.02372   0.01575  -0.2104  0.5000  0.0747  -1.5807   0.0000   0.5286
  -1.000   0.8949   0.01885   0.00982  -0.2178  0.5000  0.1133  -1.2824   0.0000   0.4927
   0.000   1.0024   0.01838   0.00919  -0.2172  0.5000  0.1573  -1.3650   0.0000   0.4642
   1.000   1.1081   0.01805   0.00876  -0.2165  0.5000  0.2037  -1.4523   0.0000   0.4411
   2.000   1.2121   0.01798   0.00865  -0.2154  0.5000  0.2490  -1.5385   0.0000   0.4217
   3.000   1.3136   0.01824   0.00904  -0.2141  0.5000  0.3080  -1.6307   0.0000   0.4053
   4.000   1.4151   0.01858   0.00987  -0.2131  0.5000  0.5000  -1.7264   0.0000   0.3911
   5.000   1.5086   0.01978   0.01106  -0.2105  0.5000  0.5000  -1.8240   0.0000   0.3783
   6.000   1.5977   0.02128   0.01272  -0.2076  0.5000  0.5000  -1.9374   0.0000   0.3668
   7.000   1.6813   0.02322   0.01495  -0.2041  0.5000  0.5000  -2.0686   0.0000   0.3565
   8.000   1.7567   0.02601   0.01814  -0.1999  0.5000  0.5000  -2.2156   0.0000   0.3470
   9.000   1.8015   0.03128   0.02401  -0.1923  0.5000  0.5000  -2.3512   0.0000   0.3380
  11.000   1.7540   0.04911   0.04272  -0.1649  0.4587  0.5000  -2.4953   0.0000   0.3208
  12.000   1.6859   0.06556   0.05954  -0.1546  0.4201  0.5000  -2.5042   0.0000   0.3160
  13.000   1.9145   0.04979   0.04364  -0.1581  0.4051  0.5000  -3.0779   0.0000   0.3046
  14.000   1.8750   0.06237   0.05652  -0.1493  0.3685  0.5000  -3.1849   0.0000   0.2990
  15.000   1.8714   0.07240   0.06667  -0.1443  0.3275  0.5000  -3.3925   0.0000   0.2938
  16.000   1.8691   0.08303   0.07730  -0.1405  0.2841  0.5000  -3.6025   0.0000   0.2891
  17.000   1.8643   0.09446   0.08891  -0.1381  0.2426  0.5000  -3.8446   0.0000   0.2852


