xflr5 v6.10.03

 Calculated polar for: E423

 1 1 Reynolds number fixed          Mach number fixed         

 xtrf =   0.500 (top)        0.500 (bottom)
 Mach =   0.000     Re =     0.540 e 6     Ncrit =   9.000

  alpha     CL        CD       CDp       Cm    Top Xtr Bot Xtr   Cpmin    Chinge    XCp    
 ------- -------- --------- --------- -------- ------- ------- -------- --------- ---------
  -5.000   0.4352   0.05894   0.05415  -0.1587  0.5000  0.0287  -1.2605   0.0000   0.6260
  -4.000   0.4769   0.04201   0.03727  -0.1711  0.5000  0.0222  -1.8502   0.0000   0.6168
  -3.000   0.7277   0.01264   0.00548  -0.2281  0.5000  0.0321  -2.5707   0.0000   0.5676
  -2.000   0.8382   0.01220   0.00493  -0.2279  0.5000  0.0495  -1.8010   0.0000   0.5234
  -1.000   0.9507   0.01155   0.00423  -0.2281  0.5000  0.0936  -1.3174   0.0000   0.4894
   0.000   1.0588   0.01156   0.00426  -0.2273  0.5000  0.1290  -1.4029   0.0000   0.4623
   1.000   1.1656   0.01170   0.00446  -0.2265  0.5000  0.1628  -1.4934   0.0000   0.4401
   2.000   1.2705   0.01203   0.00485  -0.2254  0.5000  0.1868  -1.5828   0.0000   0.4214
   3.000   1.3761   0.01224   0.00521  -0.2247  0.5000  0.2343  -1.6807   0.0000   0.4055
   4.000   1.4807   0.01258   0.00583  -0.2240  0.5000  0.3241  -1.7810   0.0000   0.3918
   5.000   1.5845   0.01303   0.00668  -0.2234  0.5000  0.5000  -1.8883   0.0000   0.3797
   6.000   1.6871   0.01387   0.00766  -0.2227  0.5000  0.5000  -2.0197   0.0000   0.3689
   7.000   1.7882   0.01496   0.00890  -0.2219  0.4923  0.5000  -2.1756   0.0000   0.3591
   8.000   1.8596   0.01572   0.00988  -0.2152  0.4809  0.5000  -2.3388   0.0000   0.3487
   9.000   1.9184   0.01724   0.01139  -0.2069  0.4560  0.5000  -2.5169   0.0000   0.3387
  10.000   1.9818   0.01896   0.01337  -0.2001  0.4368  0.5000  -2.7301   0.0000   0.3298
  11.000   2.0147   0.02232   0.01671  -0.1894  0.4038  0.5000  -2.9335   0.0000   0.3206
  12.000   2.0376   0.02712   0.02165  -0.1793  0.3729  0.5000  -3.1549   0.0000   0.3122
  13.000   2.0357   0.03495   0.02954  -0.1688  0.3321  0.5000  -3.3551   0.0000   0.3047
  14.000   2.0055   0.04684   0.04143  -0.1590  0.2863  0.5000  -3.5166   0.0000   0.2984
  15.000   1.9607   0.06238   0.05700  -0.1518  0.2417  0.5000  -3.6376   0.0000   0.2938
  16.000   1.9264   0.07761   0.07238  -0.1474  0.2033  0.5000  -3.7883   0.0000   0.2902
  17.000   1.9027   0.09257   0.08746  -0.1454  0.1742  0.5000  -3.9984   0.0000   0.2873


