XFLR5 v6.09.06

 Calculated polar for: MIN ponta2016

 1 1 Reynolds number fixed          Mach number fixed         

 xtrf =   1.000 (top)        1.000 (bottom)
 Mach =   0.080     Re =     0.280 e 6     Ncrit =   9.000

  alpha     CL        CD       CDp       Cm    Top Xtr Bot Xtr   Cpmin    Chinge    XCp    
 ------- -------- --------- --------- -------- ------- ------- -------- --------- ---------
 -10.000  -0.1052   0.13541   0.13238  -0.0567  0.9696  0.0206  -1.2831   0.0000  -0.3426
  -9.500  -0.0654   0.12798   0.12494  -0.0630  0.9649  0.0211  -1.1438   0.0000  -0.7985
  -9.000  -0.0374   0.12195   0.11892  -0.0675  0.9563  0.0218  -1.0793   0.0000  -1.6960
  -8.500   0.0012   0.11529   0.11224  -0.0750  0.9525  0.0227  -1.0376   0.0000  69.8231
  -8.000   0.0261   0.10949   0.10646  -0.0791  0.9424  0.0237  -1.0614   0.0000   3.4738
  -7.500   0.0485   0.10424   0.10123  -0.0855  0.9316  0.0243  -1.2117   0.0000   2.1128
  -7.000   0.0899   0.09686   0.09385  -0.0913  0.9273  0.0248  -1.1353   0.0000   1.3173
  -6.500   0.1146   0.09171   0.08873  -0.0932  0.9155  0.0256  -1.0700   0.0000   1.1014
  -5.000   0.1982   0.07439   0.07147  -0.1064  0.8819  0.0293  -1.1669   0.0000   0.8041
  -4.500   0.2280   0.06922   0.06631  -0.1087  0.8678  0.0309  -1.1030   0.0000   0.7402
  -3.500   0.3438   0.05511   0.05213  -0.1299  0.8470  0.0369  -1.1296   0.0000   0.6348
  -2.500   0.6863   0.02073   0.01634  -0.2156  0.8223  0.0328  -1.9146   0.0000   0.5668
  -2.000   0.7404   0.02336   0.01935  -0.2134  0.7975  0.0555  -1.2034   0.0000   0.5397
  -1.500   0.9204   0.01284   0.00648  -0.2416  0.7746  0.0453  -1.5989   0.0000   0.5131
  -1.000   0.9996   0.01224   0.00564  -0.2461  0.7365  0.0746  -1.2911   0.0000   0.4959
  -0.500   1.0570   0.01223   0.00547  -0.2460  0.6984  0.1265  -1.2098   0.0000   0.4815
   0.000   1.1041   0.01258   0.00562  -0.2437  0.6609  0.1838  -1.2710   0.0000   0.4687
   0.500   1.1489   0.01295   0.00580  -0.2411  0.6276  0.2244  -1.3354   0.0000   0.4569
   1.000   1.1955   0.01336   0.00604  -0.2389  0.5996  0.2643  -1.4055   0.0000   0.4461
   1.500   1.2440   0.01377   0.00634  -0.2371  0.5765  0.3061  -1.4784   0.0000   0.4360
   2.000   1.2931   0.01417   0.00673  -0.2356  0.5567  0.3592  -1.5566   0.0000   0.4268
   2.500   1.3424   0.01456   0.00716  -0.2341  0.5388  0.4326  -1.6357   0.0000   0.4182
   3.000   1.3921   0.01486   0.00768  -0.2329  0.5219  0.5692  -1.7186   0.0000   0.4102
   3.500   1.4344   0.01492   0.00802  -0.2299  0.5069  1.0000  -1.8005   0.0000   0.4024
   4.000   1.4782   0.01547   0.00845  -0.2273  0.4916  1.0000  -1.8879   0.0000   0.3950
   4.500   1.5207   0.01604   0.00895  -0.2246  0.4762  1.0000  -1.9749   0.0000   0.3881
   5.000   1.5630   0.01667   0.00952  -0.2219  0.4614  1.0000  -2.0626   0.0000   0.3815
   5.500   1.6031   0.01735   0.01011  -0.2188  0.4458  1.0000  -2.1545   0.0000   0.3751
   6.000   1.6410   0.01809   0.01080  -0.2154  0.4297  1.0000  -2.2452   0.0000   0.3690
   6.500   1.6765   0.01890   0.01155  -0.2116  0.4125  1.0000  -2.3380   0.0000   0.3630
   7.000   1.7101   0.01977   0.01241  -0.2076  0.3950  1.0000  -2.4312   0.0000   0.3573
   7.500   1.7420   0.02078   0.01342  -0.2034  0.3763  1.0000  -2.5239   0.0000   0.3517
   8.000   1.7713   0.02195   0.01459  -0.1990  0.3564  1.0000  -2.6193   0.0000   0.3463
   8.500   1.7994   0.02329   0.01594  -0.1945  0.3363  1.0000  -2.7135   0.0000   0.3411
   9.000   1.8253   0.02484   0.01749  -0.1899  0.3163  1.0000  -2.8052   0.0000   0.3361
   9.500   1.8495   0.02662   0.01927  -0.1853  0.2980  1.0000  -2.8987   0.0000   0.3312
  10.000   1.8725   0.02861   0.02126  -0.1808  0.2820  1.0000  -3.0000   0.0000   0.3265
  10.500   1.8930   0.03085   0.02351  -0.1763  0.2675  1.0000  -3.0983   0.0000   0.3220
  11.000   1.9126   0.03329   0.02597  -0.1719  0.2547  1.0000  -3.1952   0.0000   0.3177
  11.500   1.9337   0.03571   0.02855  -0.1680  0.2435  1.0000  -3.2948   0.0000   0.3136
  12.000   1.9509   0.03859   0.03149  -0.1639  0.2332  1.0000  -3.4027   0.0000   0.3096
  12.500   1.9670   0.04162   0.03465  -0.1602  0.2236  1.0000  -3.5092   0.0000   0.3058
  13.000   1.9829   0.04489   0.03807  -0.1567  0.2149  1.0000  -3.6193   0.0000   0.3023
  13.500   1.9965   0.04847   0.04177  -0.1535  0.2070  1.0000  -3.7318   0.0000   0.2989
  14.000   2.0092   0.05232   0.04580  -0.1505  0.1993  1.0000  -3.8637   0.0000   0.2957
  14.500   2.0178   0.05667   0.05033  -0.1478  0.1917  1.0000  -3.9957   0.0000   0.2928
  15.000   2.0278   0.06112   0.05494  -0.1454  0.1847  1.0000  -4.1311   0.0000   0.2900
  15.500   2.0324   0.06628   0.06036  -0.1435  0.1779  1.0000  -4.2654   0.0000   0.2875
  16.000   2.0391   0.07132   0.06549  -0.1418  0.1708  1.0000  -4.4212   0.0000   0.2851
  16.500   2.0357   0.07790   0.07240  -0.1408  0.1642  1.0000  -4.6245   0.0000   0.2833
  17.000   2.0416   0.08322   0.07774  -0.1398  0.1570  1.0000  -4.9755   0.0000   0.2812


