XFLR5 v6.09.06

 Calculated polar for: MIN ponta2016

 1 1 Reynolds number fixed          Mach number fixed         

 xtrf =   1.000 (top)        1.000 (bottom)
 Mach =   0.000     Re =     0.420 e 6     Ncrit =   9.000

  alpha     CL        CD       CDp       Cm    Top Xtr Bot Xtr   Cpmin    Chinge    XCp    
 ------- -------- --------- --------- -------- ------- ------- -------- --------- ---------
 -10.000  -0.0239   0.12532   0.12268  -0.0764  0.9642  0.0167  -1.1616   0.0000  -3.2173
  -9.500  -0.0035   0.11956   0.11693  -0.0803  0.9557  0.0169  -1.2032   0.0000  -24.5832
  -9.000   0.0316   0.11290   0.11026  -0.0897  0.9527  0.0170  -1.2840   0.0000   3.2816
  -8.000   0.0922   0.10057   0.09797  -0.0961  0.9413  0.0177  -1.0900   0.0000   1.3517
  -7.000   0.1522   0.08932   0.08674  -0.1049  0.9279  0.0192  -1.0510   0.0000   0.9721
  -6.500   0.1709   0.08419   0.08164  -0.1076  0.9165  0.0202  -1.1409   0.0000   0.9068
  -6.000   0.1812   0.07912   0.07659  -0.1119  0.9026  0.0205  -1.3711   0.0000   0.8908
  -5.500   0.2247   0.07283   0.07031  -0.1148  0.8987  0.0211  -1.1632   0.0000   0.7784
  -4.000   0.3347   0.05502   0.05248  -0.1324  0.8542  0.0251  -1.2281   0.0000   0.6541
  -3.500   0.4223   0.04548   0.04280  -0.1535  0.8360  0.0289  -1.4140   0.0000   0.6195
  -2.500   0.8006   0.01217   0.00683  -0.2396  0.8055  0.0230  -2.1088   0.0000   0.5519
  -2.000   0.8870   0.01100   0.00516  -0.2456  0.7673  0.0274  -1.8684   0.0000   0.5285
  -1.500   0.9509   0.01069   0.00455  -0.2470  0.7294  0.0406  -1.6036   0.0000   0.5103
  -1.000   1.0014   0.01067   0.00433  -0.2456  0.6917  0.0628  -1.3155   0.0000   0.4949
  -0.500   1.0450   0.01075   0.00429  -0.2428  0.6501  0.1059  -1.1999   0.0000   0.4811
   0.000   1.0871   0.01111   0.00449  -0.2396  0.6127  0.1603  -1.2572   0.0000   0.4683
   0.500   1.1319   0.01157   0.00475  -0.2371  0.5828  0.1969  -1.3208   0.0000   0.4565
   1.000   1.1796   0.01197   0.00502  -0.2353  0.5601  0.2317  -1.3915   0.0000   0.4457
   1.500   1.2281   0.01233   0.00532  -0.2337  0.5410  0.2696  -1.4643   0.0000   0.4357
   2.000   1.2768   0.01270   0.00568  -0.2321  0.5239  0.3159  -1.5419   0.0000   0.4264
   2.500   1.3246   0.01309   0.00607  -0.2305  0.5075  0.3802  -1.6197   0.0000   0.4177
   3.000   1.3729   0.01337   0.00647  -0.2289  0.4931  0.4573  -1.7003   0.0000   0.4096
   4.000   1.4619   0.01364   0.00734  -0.2243  0.4652  1.0000  -1.8717   0.0000   0.3947
   4.500   1.5056   0.01423   0.00779  -0.2219  0.4510  1.0000  -1.9596   0.0000   0.3878
   5.000   1.5488   0.01474   0.00827  -0.2195  0.4361  1.0000  -2.0480   0.0000   0.3812
   5.500   1.5911   0.01533   0.00881  -0.2169  0.4210  1.0000  -2.1415   0.0000   0.3750
   6.000   1.6313   0.01601   0.00944  -0.2141  0.4051  1.0000  -2.2344   0.0000   0.3689
   6.500   1.6703   0.01675   0.01014  -0.2111  0.3890  1.0000  -2.3307   0.0000   0.3632
   7.000   1.7077   0.01757   0.01093  -0.2079  0.3710  1.0000  -2.4282   0.0000   0.3576
   7.500   1.7427   0.01853   0.01183  -0.2044  0.3512  1.0000  -2.5253   0.0000   0.3522
   8.000   1.7763   0.01961   0.01288  -0.2008  0.3308  1.0000  -2.6261   0.0000   0.3470
   8.500   1.8062   0.02093   0.01413  -0.1967  0.3097  1.0000  -2.7230   0.0000   0.3419
   9.000   1.8346   0.02241   0.01557  -0.1926  0.2902  1.0000  -2.8182   0.0000   0.3370
   9.500   1.8614   0.02405   0.01717  -0.1884  0.2728  1.0000  -2.9176   0.0000   0.3322
  10.000   1.8874   0.02580   0.01894  -0.1843  0.2575  1.0000  -3.0241   0.0000   0.3276
  10.500   1.9123   0.02767   0.02086  -0.1803  0.2448  1.0000  -3.1296   0.0000   0.3232
  11.000   1.9335   0.02989   0.02312  -0.1760  0.2335  1.0000  -3.2298   0.0000   0.3188
  11.500   1.9535   0.03228   0.02556  -0.1719  0.2228  1.0000  -3.3320   0.0000   0.3147
  12.000   1.9746   0.03469   0.02810  -0.1681  0.2136  1.0000  -3.4478   0.0000   0.3107
  12.500   1.9885   0.03783   0.03128  -0.1640  0.2049  1.0000  -3.5512   0.0000   0.3069
  13.000   2.0080   0.04063   0.03428  -0.1608  0.1977  1.0000  -3.6714   0.0000   0.3033
  13.500   2.0186   0.04438   0.03810  -0.1572  0.1897  1.0000  -3.7825   0.0000   0.2999
  14.000   2.0329   0.04799   0.04190  -0.1543  0.1828  1.0000  -3.9263   0.0000   0.2967
  14.500   2.0420   0.05229   0.04634  -0.1516  0.1761  1.0000  -4.0605   0.0000   0.2938
  15.000   2.0487   0.05706   0.05126  -0.1491  0.1696  1.0000  -4.1885   0.0000   0.2910
  15.500   2.0559   0.06198   0.05638  -0.1473  0.1629  1.0000  -4.3405   0.0000   0.2885
  16.000   2.0548   0.06808   0.06259  -0.1455  0.1563  1.0000  -4.4745   0.0000   0.2863
  16.500   2.0598   0.07372   0.06849  -0.1446  0.1502  1.0000  -4.8025   0.0000   0.2843
  17.000   2.0541   0.08089   0.07577  -0.1439  0.1440  1.0000  -5.0853   0.0000   0.2828


