XFLR5 v6.09.06

 Calculated polar for: MIN ponta2016

 1 1 Reynolds number fixed          Mach number fixed         

 xtrf =   1.000 (top)        1.000 (bottom)
 Mach =   0.080     Re =     0.080 e 6     Ncrit =   9.000

  alpha     CL        CD       CDp       Cm    Top Xtr Bot Xtr   Cpmin    Chinge    XCp    
 ------- -------- --------- --------- -------- ------- ------- -------- --------- ---------
  -9.500  -0.2351   0.15084   0.14580  -0.0193  1.0000  0.0556  -1.1201   0.0000   0.1503
  -9.000  -0.2371   0.14773   0.14281  -0.0173  1.0000  0.0574  -1.1064   0.0000   0.1605
  -8.500  -0.2417   0.14509   0.14029  -0.0154  1.0000  0.0592  -1.1073   0.0000   0.1710
  -8.000  -0.2515   0.14361   0.13894  -0.0138  1.0000  0.0607  -1.1424   0.0000   0.1812
  -7.500  -0.2710   0.14408   0.13957  -0.0124  1.0000  0.0614  -1.2290   0.0000   0.1923
  -7.000  -0.2680   0.13958   0.13520  -0.0124  0.9976  0.0621  -1.2402   0.0000   0.1921
  -6.500  -0.2026   0.12997   0.12553  -0.0228  0.9793  0.0664  -1.1294   0.0000   0.1217
  -6.000  -0.1716   0.12597   0.12154  -0.0319  0.9581  0.0708  -1.1696   0.0000   0.0453
  -5.000  -0.1142   0.11438   0.11002  -0.0415  0.9172  0.0784  -1.1365   0.0000  -0.1390
  -4.500  -0.0790   0.11355   0.10919  -0.0612  0.8888  0.0840  -1.3041   0.0000  -0.5611
  -4.000  -0.0499   0.10319   0.09888  -0.0544  0.8752  0.0884  -1.1485   0.0000  -0.8937
  -3.500   0.0244   0.09927   0.09488  -0.0802  0.8507  0.0982  -1.2656   0.0000   3.6347
  -3.000   0.0370   0.09108   0.08675  -0.0706  0.8346  0.1021  -1.1354   0.0000   2.2196
  -2.500   0.1210   0.08444   0.08001  -0.0908  0.8163  0.1150  -1.1495   0.0000   1.0160
  -2.000   0.1564   0.07858   0.07416  -0.0898  0.7994  0.1237  -1.0448   0.0000   0.8343
  -1.500   0.2987   0.07141   0.06669  -0.1219  0.7835  0.1499  -1.0118   0.0000   0.6622
  -1.000   0.3800   0.06276   0.05801  -0.1279  0.7770  0.1727  -0.8540   0.0000   0.5884
   0.500   0.9600   0.03117   0.02325  -0.2180  0.7598  0.2326  -1.1609   0.0000   0.4749
   1.000   1.0455   0.02970   0.02168  -0.2219  0.7429  0.3302  -1.2532   0.0000   0.4592
   1.500   1.1396   0.02825   0.02007  -0.2274  0.7251  0.4173  -1.3592   0.0000   0.4457
   2.500   1.2860   0.02604   0.01826  -0.2312  0.6845  0.7669  -1.5488   0.0000   0.4242
   3.000   1.3601   0.02626   0.01779  -0.2338  0.6630  1.0000  -1.6494   0.0000   0.4154
   3.500   1.4143   0.02707   0.01828  -0.2329  0.6410  1.0000  -1.7368   0.0000   0.4074
   4.000   1.4610   0.02810   0.01913  -0.2308  0.6190  1.0000  -1.8233   0.0000   0.3998
   4.500   1.5102   0.02909   0.01994  -0.2291  0.5973  1.0000  -1.9134   0.0000   0.3927
   5.000   1.5594   0.03010   0.02083  -0.2274  0.5756  1.0000  -2.0053   0.0000   0.3859
   5.500   1.6079   0.03120   0.02180  -0.2257  0.5540  1.0000  -2.1030   0.0000   0.3795
   6.000   1.6553   0.03236   0.02288  -0.2238  0.5324  1.0000  -2.2004   0.0000   0.3735
   6.500   1.7027   0.03351   0.02393  -0.2219  0.5106  1.0000  -2.3049   0.0000   0.3676
   7.000   1.7517   0.03465   0.02497  -0.2203  0.4890  1.0000  -2.4133   0.0000   0.3621
   7.500   1.7810   0.03625   0.02665  -0.2155  0.4670  1.0000  -2.5005   0.0000   0.3564
   8.000   1.8082   0.03790   0.02843  -0.2104  0.4455  1.0000  -2.5878   0.0000   0.3509
   8.500   1.8357   0.03958   0.03018  -0.2055  0.4249  1.0000  -2.6755   0.0000   0.3455
   9.000   1.8625   0.04138   0.03208  -0.2007  0.4057  1.0000  -2.7660   0.0000   0.3403
   9.500   1.8865   0.04327   0.03408  -0.1956  0.3879  1.0000  -2.8591   0.0000   0.3352
  10.000   1.9110   0.04526   0.03616  -0.1907  0.3713  1.0000  -2.9569   0.0000   0.3303
  10.500   1.9424   0.04722   0.03817  -0.1870  0.3557  1.0000  -3.0655   0.0000   0.3258
  11.000   1.9683   0.04938   0.04044  -0.1828  0.3409  1.0000  -3.1699   0.0000   0.3213
  11.500   1.9348   0.05450   0.04609  -0.1714  0.3294  1.0000  -3.1764   0.0000   0.3160
  12.000   1.9463   0.05809   0.04989  -0.1664  0.3175  1.0000  -3.2643   0.0000   0.3119
  12.500   1.9988   0.05960   0.05137  -0.1660  0.3044  1.0000  -3.4338   0.0000   0.3083
  13.000   1.8683   0.07374   0.06638  -0.1509  0.2983  1.0000  -3.2421   0.0000   0.3050
  13.500   1.7507   0.09308   0.08622  -0.1462  0.2897  1.0000  -3.0481   0.0000   0.3067
  14.000   1.3086   0.19489   0.18829  -0.1917  0.2860  1.0000  -1.7343   0.0000   0.3722
  16.000   1.3231   0.23353   0.22740  -0.2103  0.2887  1.0000  -1.6530   0.0000   0.3812
  16.500   1.3135   0.23852   0.23244  -0.2164  0.2770  1.0000  -1.6045   0.0000   0.3860
  17.000   1.3714   0.25024   0.24437  -0.2133  0.2703  1.0000  -1.7803   0.0000   0.3753


