XFLR5 v6.09.06

 Calculated polar for: MIN ponta2016

 1 1 Reynolds number fixed          Mach number fixed         

 xtrf =   1.000 (top)        1.000 (bottom)
 Mach =   0.000     Re =     0.240 e 6     Ncrit =   9.000

  alpha     CL        CD       CDp       Cm    Top Xtr Bot Xtr   Cpmin    Chinge    XCp    
 ------- -------- --------- --------- -------- ------- ------- -------- --------- ---------
 -10.000   0.0238   0.11443   0.11142  -0.0713  0.9430  0.0245  -0.9076   0.0000   3.4110
  -9.500   0.0574   0.10705   0.10403  -0.0763  0.9401  0.0252  -0.7981   0.0000   1.6476
  -9.000   0.0751   0.10140   0.09839  -0.0783  0.9300  0.0261  -0.7775   0.0000   1.3416
  -8.500   0.1057   0.09420   0.09118  -0.0841  0.9268  0.0274  -0.7815   0.0000   1.0799
  -8.000  -0.0060   0.11300   0.10981  -0.0714  0.9445  0.0255  -1.0662   0.0000  -12.5048
  -7.500   0.0349   0.10639   0.10319  -0.0792  0.9398  0.0268  -1.0452   0.0000   2.6528
  -7.000   0.0595   0.10085   0.09768  -0.0837  0.9280  0.0282  -1.0995   0.0000   1.7315
  -6.500   0.0708   0.09693   0.09379  -0.0902  0.9134  0.0286  -1.3085   0.0000   1.5840
  -5.500   0.1432   0.08395   0.08084  -0.0953  0.8969  0.0312  -1.0758   0.0000   0.9408
  -5.000   0.1770   0.07758   0.07446  -0.1071  0.8808  0.0334  -1.2965   0.0000   0.8744
  -4.500   0.2004   0.07200   0.06892  -0.1046  0.8668  0.0344  -1.1619   0.0000   0.7868
  -3.000   0.3856   0.05051   0.04731  -0.1381  0.8320  0.0468  -1.1679   0.0000   0.6132
  -2.000   0.7857   0.01644   0.01057  -0.2268  0.8163  0.0348  -1.8418   0.0000   0.5404
  -1.500   0.8883   0.01411   0.00774  -0.2357  0.7926  0.0470  -1.6105   0.0000   0.5160
  -1.000   0.9860   0.01304   0.00638  -0.2438  0.7585  0.0791  -1.2871   0.0000   0.4970
  -0.500   1.0536   0.01287   0.00601  -0.2457  0.7205  0.1361  -1.2035   0.0000   0.4821
   0.000   1.1044   0.01319   0.00615  -0.2443  0.6831  0.1950  -1.2670   0.0000   0.4692
   0.500   1.1515   0.01355   0.00632  -0.2421  0.6494  0.2389  -1.3330   0.0000   0.4574
   1.000   1.1996   0.01393   0.00651  -0.2403  0.6200  0.2806  -1.4040   0.0000   0.4466
   1.500   1.2477   0.01433   0.00679  -0.2385  0.5948  0.3248  -1.4765   0.0000   0.4366
   2.000   1.2974   0.01475   0.00716  -0.2371  0.5735  0.3832  -1.5548   0.0000   0.4274
   2.500   1.3476   0.01513   0.00760  -0.2359  0.5544  0.4644  -1.6342   0.0000   0.4189
   3.000   1.3901   0.01491   0.00803  -0.2330  0.5370  1.0000  -1.7106   0.0000   0.4106
   3.500   1.4378   0.01554   0.00842  -0.2313  0.5205  1.0000  -1.7970   0.0000   0.4030
   4.000   1.4851   0.01619   0.00888  -0.2295  0.5051  1.0000  -1.8872   0.0000   0.3958
   4.500   1.5293   0.01683   0.00936  -0.2271  0.4892  1.0000  -1.9757   0.0000   0.3889
   5.000   1.5683   0.01741   0.00994  -0.2238  0.4737  1.0000  -2.0598   0.0000   0.3822
   5.500   1.6071   0.01807   0.01055  -0.2205  0.4577  1.0000  -2.1498   0.0000   0.3759
   6.000   1.6444   0.01878   0.01124  -0.2170  0.4414  1.0000  -2.2392   0.0000   0.3697
   6.500   1.6795   0.01956   0.01199  -0.2131  0.4245  1.0000  -2.3313   0.0000   0.3638
   7.000   1.7125   0.02043   0.01284  -0.2090  0.4068  1.0000  -2.4233   0.0000   0.3580
   7.500   1.7436   0.02140   0.01381  -0.2047  0.3887  1.0000  -2.5148   0.0000   0.3524
   8.000   1.7721   0.02252   0.01495  -0.2001  0.3690  1.0000  -2.6085   0.0000   0.3469
   8.500   1.7985   0.02384   0.01625  -0.1953  0.3489  1.0000  -2.6999   0.0000   0.3417
   9.000   1.8234   0.02536   0.01777  -0.1906  0.3294  1.0000  -2.7894   0.0000   0.3366
   9.500   1.8464   0.02711   0.01950  -0.1858  0.3108  1.0000  -2.8815   0.0000   0.3317
  10.000   1.8691   0.02903   0.02145  -0.1812  0.2941  1.0000  -2.9815   0.0000   0.3270
  10.500   1.8907   0.03115   0.02361  -0.1767  0.2790  1.0000  -3.0800   0.0000   0.3224
  11.000   1.9110   0.03349   0.02598  -0.1724  0.2657  1.0000  -3.1769   0.0000   0.3181
  11.500   1.9310   0.03603   0.02850  -0.1684  0.2537  1.0000  -3.2759   0.0000   0.3140
  12.000   1.9489   0.03864   0.03133  -0.1643  0.2429  1.0000  -3.3835   0.0000   0.3100
  12.500   1.9667   0.04156   0.03432  -0.1606  0.2330  1.0000  -3.4915   0.0000   0.3062
  13.000   1.9814   0.04472   0.03762  -0.1569  0.2236  1.0000  -3.6001   0.0000   0.3025
  13.500   1.9977   0.04803   0.04110  -0.1537  0.2153  1.0000  -3.7183   0.0000   0.2991
  14.000   2.0096   0.05171   0.04495  -0.1505  0.2072  1.0000  -3.8501   0.0000   0.2958
  14.500   2.0213   0.05567   0.04909  -0.1477  0.1994  1.0000  -3.9878   0.0000   0.2928
  15.000   2.0280   0.06017   0.05380  -0.1451  0.1920  1.0000  -4.1145   0.0000   0.2899
  15.500   2.0391   0.06449   0.05826  -0.1430  0.1849  1.0000  -4.2704   0.0000   0.2872
  16.000   2.0387   0.07010   0.06418  -0.1411  0.1780  1.0000  -4.4030   0.0000   0.2849
  16.500   2.0465   0.07495   0.06910  -0.1395  0.1707  1.0000  -4.6991   0.0000   0.2825
  17.000   2.0379   0.08207   0.07660  -0.1387  0.1642  1.0000  -4.9569   0.0000   0.2810


