XFLR5 v6.09.06

 Calculated polar for: MIN ponta2016

 1 1 Reynolds number fixed          Mach number fixed         

 xtrf =   1.000 (top)        1.000 (bottom)
 Mach =   0.000     Re =     0.300 e 6     Ncrit =   9.000

  alpha     CL        CD       CDp       Cm    Top Xtr Bot Xtr   Cpmin    Chinge    XCp    
 ------- -------- --------- --------- -------- ------- ------- -------- --------- ---------
 -10.000  -0.0922   0.13367   0.13071  -0.0585  0.9683  0.0203  -1.2031   0.0000  -0.4456
  -9.500  -0.0562   0.12713   0.12414  -0.0687  0.9640  0.0205  -1.2711   0.0000  -1.0746
  -9.000  -0.0291   0.12014   0.11718  -0.0714  0.9552  0.0207  -1.1713   0.0000  -2.3900
  -8.500   0.0112   0.11344   0.11047  -0.0781  0.9522  0.0214  -1.0707   0.0000   7.7137
  -8.000   0.0356   0.10789   0.10494  -0.0813  0.9423  0.0221  -1.0481   0.0000   2.6772
  -7.000   0.0983   0.09585   0.09292  -0.0945  0.9271  0.0242  -1.1758   0.0000   1.2589
  -6.500   0.1170   0.09034   0.08744  -0.0972  0.9146  0.0245  -1.2319   0.0000   1.1187
  -6.000   0.1620   0.08394   0.08104  -0.1024  0.9112  0.0255  -1.0835   0.0000   0.9076
  -5.500   0.1798   0.07926   0.07640  -0.1033  0.8974  0.0268  -1.0761   0.0000   0.8457
  -5.000   0.2135   0.07240   0.06953  -0.1147  0.8817  0.0286  -1.3241   0.0000   0.8035
  -4.000   0.2789   0.06160   0.05876  -0.1178  0.8553  0.0316  -1.1246   0.0000   0.6821
  -3.500   0.3561   0.05324   0.05032  -0.1339  0.8472  0.0349  -1.1748   0.0000   0.6327
  -3.000   0.4414   0.04510   0.04207  -0.1513  0.8305  0.0402  -1.2175   0.0000   0.5974
  -2.000   0.8298   0.01358   0.00772  -0.2347  0.8034  0.0311  -1.8654   0.0000   0.5345
  -1.500   0.9250   0.01230   0.00600  -0.2423  0.7700  0.0450  -1.5941   0.0000   0.5126
  -1.000   0.9991   0.01186   0.00532  -0.2458  0.7318  0.0738  -1.2862   0.0000   0.4957
  -0.500   1.0540   0.01186   0.00520  -0.2452  0.6935  0.1260  -1.2049   0.0000   0.4815
   0.000   1.0995   0.01220   0.00535  -0.2427  0.6554  0.1814  -1.2647   0.0000   0.4687
   0.500   1.1442   0.01260   0.00553  -0.2401  0.6222  0.2205  -1.3289   0.0000   0.4569
   1.000   1.1897   0.01300   0.00578  -0.2378  0.5940  0.2593  -1.3978   0.0000   0.4461
   1.500   1.2382   0.01342   0.00608  -0.2361  0.5715  0.3006  -1.4706   0.0000   0.4361
   2.000   1.2871   0.01382   0.00645  -0.2346  0.5521  0.3528  -1.5482   0.0000   0.4269
   2.500   1.3355   0.01420   0.00687  -0.2330  0.5344  0.4250  -1.6263   0.0000   0.4182
   3.000   1.3842   0.01449   0.00737  -0.2316  0.5178  0.5434  -1.7077   0.0000   0.4103
   3.500   1.4264   0.01447   0.00774  -0.2287  0.5033  1.0000  -1.7891   0.0000   0.4024
   4.000   1.4724   0.01509   0.00816  -0.2267  0.4883  1.0000  -1.8783   0.0000   0.3952
   4.500   1.5141   0.01561   0.00863  -0.2238  0.4732  1.0000  -1.9640   0.0000   0.3882
   5.000   1.5562   0.01620   0.00917  -0.2211  0.4583  1.0000  -2.0510   0.0000   0.3816
   5.500   1.5964   0.01685   0.00975  -0.2181  0.4429  1.0000  -2.1425   0.0000   0.3753
   6.000   1.6347   0.01756   0.01042  -0.2149  0.4270  1.0000  -2.2331   0.0000   0.3692
   6.500   1.6711   0.01835   0.01115  -0.2114  0.4102  1.0000  -2.3264   0.0000   0.3633
   7.000   1.7056   0.01922   0.01201  -0.2076  0.3931  1.0000  -2.4202   0.0000   0.3576
   7.500   1.7383   0.02019   0.01296  -0.2036  0.3743  1.0000  -2.5136   0.0000   0.3521
   8.000   1.7686   0.02130   0.01408  -0.1994  0.3543  1.0000  -2.6099   0.0000   0.3467
   8.500   1.7974   0.02260   0.01537  -0.1951  0.3341  1.0000  -2.7046   0.0000   0.3416
   9.000   1.8239   0.02411   0.01686  -0.1907  0.3140  1.0000  -2.7966   0.0000   0.3366
   9.500   1.8487   0.02583   0.01856  -0.1862  0.2956  1.0000  -2.8914   0.0000   0.3317
  10.000   1.8722   0.02774   0.02049  -0.1818  0.2794  1.0000  -2.9931   0.0000   0.3271
  10.500   1.8937   0.02987   0.02263  -0.1774  0.2649  1.0000  -3.0923   0.0000   0.3226
  11.000   1.9127   0.03231   0.02508  -0.1729  0.2524  1.0000  -3.1879   0.0000   0.3182
  11.500   1.9336   0.03466   0.02755  -0.1690  0.2411  1.0000  -3.2883   0.0000   0.3141
  12.000   1.9521   0.03736   0.03035  -0.1651  0.2309  1.0000  -3.3977   0.0000   0.3102
  12.500   1.9668   0.04049   0.03352  -0.1611  0.2212  1.0000  -3.5016   0.0000   0.3064
  13.000   1.9842   0.04351   0.03676  -0.1578  0.2129  1.0000  -3.6145   0.0000   0.3028
  13.500   1.9969   0.04713   0.04043  -0.1544  0.2048  1.0000  -3.7263   0.0000   0.2994
  14.000   2.0101   0.05083   0.04439  -0.1515  0.1973  1.0000  -3.8607   0.0000   0.2962
  14.500   2.0189   0.05511   0.04876  -0.1487  0.1897  1.0000  -3.9929   0.0000   0.2933
  15.000   2.0284   0.05954   0.05343  -0.1464  0.1830  1.0000  -4.1258   0.0000   0.2905
  15.500   2.0340   0.06454   0.05861  -0.1444  0.1762  1.0000  -4.2662   0.0000   0.2880
  16.000   2.0387   0.06981   0.06405  -0.1427  0.1693  1.0000  -4.4142   0.0000   0.2856
  16.500   2.0381   0.07598   0.07047  -0.1416  0.1626  1.0000  -4.6633   0.0000   0.2837
  17.000   2.0402   0.08184   0.07643  -0.1407  0.1559  1.0000  -4.9882   0.0000   0.2818


