XFLR5 v6.09.06

 Calculated polar for: MIN ponta2016

 1 1 Reynolds number fixed          Mach number fixed         

 xtrf =   1.000 (top)        1.000 (bottom)
 Mach =   0.000     Re =     0.500 e 6     Ncrit =   9.000

  alpha     CL        CD       CDp       Cm    Top Xtr Bot Xtr   Cpmin    Chinge    XCp    
 ------- -------- --------- --------- -------- ------- ------- -------- --------- ---------
 -10.000   0.1317   0.09695   0.09463  -0.0978  0.9420  0.0157  -0.7951   0.0000   1.0291
  -9.500   0.1594   0.09008   0.08776  -0.1028  0.9403  0.0163  -0.7775   0.0000   0.9251
  -8.500   0.0848   0.10391   0.10147  -0.0964  0.9444  0.0158  -1.0435   0.0000   1.4559
  -8.000   0.1212   0.09739   0.09494  -0.1033  0.9412  0.0166  -1.0761   0.0000   1.1493
  -7.500   0.1379   0.09219   0.08976  -0.1068  0.9316  0.0170  -1.2301   0.0000   1.0633
  -7.000   0.1721   0.08548   0.08306  -0.1141  0.9275  0.0171  -1.3180   0.0000   0.9435
  -5.500   0.2469   0.07080   0.06844  -0.1189  0.9000  0.0191  -1.0960   0.0000   0.7481
  -4.500   0.3136   0.05832   0.05595  -0.1311  0.8705  0.0210  -1.2610   0.0000   0.6786
  -4.000   0.3622   0.05311   0.05069  -0.1378  0.8525  0.0224  -1.1637   0.0000   0.6386
  -3.500   0.4468   0.04438   0.04182  -0.1568  0.8312  0.0252  -1.2862   0.0000   0.6069
  -3.000   0.5548   0.03567   0.03288  -0.1795  0.8045  0.0299  -1.3168   0.0000   0.5777
  -2.500   0.8315   0.01078   0.00532  -0.2457  0.7842  0.0209  -2.1521   0.0000   0.5481
  -2.000   0.8988   0.01029   0.00446  -0.2478  0.7445  0.0253  -1.8915   0.0000   0.5273
  -1.500   0.9516   0.01016   0.00411  -0.2469  0.7086  0.0370  -1.6308   0.0000   0.5100
  -1.000   0.9966   0.01019   0.00395  -0.2443  0.6687  0.0569  -1.3448   0.0000   0.4948
  -0.500   1.0385   0.01038   0.00397  -0.2412  0.6262  0.0949  -1.1959   0.0000   0.4810
   0.000   1.0827   0.01075   0.00419  -0.2386  0.5912  0.1495  -1.2544   0.0000   0.4682
   0.500   1.1287   0.01118   0.00447  -0.2364  0.5650  0.1871  -1.3189   0.0000   0.4564
   1.000   1.1772   0.01152   0.00474  -0.2347  0.5444  0.2200  -1.3903   0.0000   0.4456
   1.500   1.2258   0.01188   0.00503  -0.2331  0.5267  0.2564  -1.4632   0.0000   0.4355
   2.000   1.2743   0.01220   0.00534  -0.2315  0.5099  0.3002  -1.5407   0.0000   0.4262
   2.500   1.3233   0.01248   0.00569  -0.2301  0.4951  0.3609  -1.6196   0.0000   0.4176
   3.000   1.3718   0.01280   0.00609  -0.2286  0.4815  0.4318  -1.7004   0.0000   0.4095
   4.000   1.4614   0.01303   0.00698  -0.2242  0.4538  1.0000  -1.8728   0.0000   0.3946
   4.500   1.5067   0.01351   0.00739  -0.2221  0.4398  1.0000  -1.9624   0.0000   0.3877
   5.000   1.5505   0.01407   0.00787  -0.2198  0.4253  1.0000  -2.0515   0.0000   0.3812
   5.500   1.5925   0.01469   0.00840  -0.2172  0.4099  1.0000  -2.1450   0.0000   0.3750
   6.000   1.6329   0.01538   0.00903  -0.2144  0.3941  1.0000  -2.2380   0.0000   0.3690
   6.500   1.6736   0.01606   0.00967  -0.2117  0.3774  1.0000  -2.3366   0.0000   0.3633
   7.000   1.7113   0.01690   0.01045  -0.2086  0.3586  1.0000  -2.4348   0.0000   0.3577
   7.500   1.7477   0.01783   0.01133  -0.2053  0.3390  1.0000  -2.5340   0.0000   0.3524
   8.000   1.7828   0.01887   0.01233  -0.2020  0.3179  1.0000  -2.6371   0.0000   0.3472
   8.500   1.8148   0.02010   0.01350  -0.1982  0.2970  1.0000  -2.7369   0.0000   0.3422
   9.000   1.8450   0.02149   0.01485  -0.1944  0.2782  1.0000  -2.8349   0.0000   0.3373
   9.500   1.8734   0.02302   0.01635  -0.1904  0.2613  1.0000  -2.9382   0.0000   0.3326
  10.000   1.9001   0.02469   0.01804  -0.1863  0.2473  1.0000  -3.0465   0.0000   0.3280
  10.500   1.9237   0.02664   0.01998  -0.1820  0.2350  1.0000  -3.1505   0.0000   0.3235
  11.000   1.9482   0.02857   0.02197  -0.1781  0.2239  1.0000  -3.2569   0.0000   0.3192
  11.500   1.9715   0.03067   0.02416  -0.1743  0.2142  1.0000  -3.3669   0.0000   0.3151
  12.000   1.9883   0.03336   0.02689  -0.1700  0.2049  1.0000  -3.4763   0.0000   0.3111
  12.500   2.0106   0.03573   0.02942  -0.1666  0.1977  1.0000  -3.5956   0.0000   0.3073
  13.000   2.0236   0.03903   0.03278  -0.1626  0.1896  1.0000  -3.7063   0.0000   0.3036
  13.500   2.0412   0.04207   0.03599  -0.1595  0.1826  1.0000  -3.8382   0.0000   0.3001
  14.000   2.0521   0.04591   0.03994  -0.1562  0.1757  1.0000  -3.9771   0.0000   0.2969
  14.500   2.0618   0.05011   0.04430  -0.1533  0.1694  1.0000  -4.1134   0.0000   0.2939
  15.000   2.0717   0.05447   0.04882  -0.1510  0.1626  1.0000  -4.2540   0.0000   0.2911
  15.500   2.0724   0.06008   0.05456  -0.1486  0.1560  1.0000  -4.3930   0.0000   0.2886
  16.000   2.0808   0.06504   0.05973  -0.1471  0.1500  1.0000  -4.6161   0.0000   0.2862
  16.500   2.0748   0.07202   0.06681  -0.1458  0.1435  1.0000  -4.8957   0.0000   0.2844
  17.000   2.0788   0.07791   0.07297  -0.1451  0.1385  1.0000  -5.2383   0.0000   0.2825


