XFLR5 v6.09.06

 Calculated polar for: MIN ponta2016

 1 1 Reynolds number fixed          Mach number fixed         

 xtrf =   1.000 (top)        1.000 (bottom)
 Mach =   0.000     Re =     0.400 e 6     Ncrit =   9.000

  alpha     CL        CD       CDp       Cm    Top Xtr Bot Xtr   Cpmin    Chinge    XCp    
 ------- -------- --------- --------- -------- ------- ------- -------- --------- ---------
 -10.000   0.1010   0.10147   0.09896  -0.0900  0.9417  0.0176  -0.8415   0.0000   1.1858
  -9.500   0.1311   0.09464   0.09213  -0.0952  0.9400  0.0181  -0.7816   0.0000   1.0110
  -9.000   0.1443   0.08942   0.08692  -0.0959  0.9306  0.0186  -0.7795   0.0000   0.9441
  -8.500   0.1728   0.08242   0.07992  -0.1009  0.9278  0.0195  -0.7864   0.0000   0.8583
  -8.000   0.2008   0.07508   0.07257  -0.1076  0.9259  0.0204  -0.8940   0.0000   0.8064
  -7.500   0.1082   0.09647   0.09384  -0.0966  0.9324  0.0191  -1.0477   0.0000   1.1903
  -7.000   0.1448   0.09003   0.08740  -0.1040  0.9276  0.0202  -1.1156   0.0000   1.0027
  -6.500   0.1556   0.08525   0.08265  -0.1082  0.9146  0.0205  -1.3286   0.0000   0.9748
  -6.000   0.2023   0.07843   0.07583  -0.1127  0.9122  0.0210  -1.1498   0.0000   0.8286
  -5.500   0.2189   0.07407   0.07150  -0.1125  0.8986  0.0218  -1.1017   0.0000   0.7818
  -5.000   0.2452   0.06863   0.06607  -0.1155  0.8850  0.0232  -1.1069   0.0000   0.7356
  -3.000   0.5072   0.03881   0.03595  -0.1685  0.8182  0.0342  -1.3324   0.0000   0.5865
  -2.500   0.7931   0.01262   0.00726  -0.2381  0.8108  0.0236  -2.1078   0.0000   0.5528
  -2.000   0.8827   0.01125   0.00538  -0.2448  0.7739  0.0280  -1.8680   0.0000   0.5289
  -1.500   0.9505   0.01087   0.00471  -0.2470  0.7355  0.0416  -1.5933   0.0000   0.5105
  -1.000   1.0031   0.01081   0.00444  -0.2460  0.6980  0.0650  -1.3058   0.0000   0.4949
  -0.500   1.0470   0.01089   0.00440  -0.2432  0.6569  0.1091  -1.2011   0.0000   0.4811
   0.000   1.0887   0.01125   0.00459  -0.2400  0.6191  0.1633  -1.2581   0.0000   0.4684
   0.500   1.1328   0.01170   0.00484  -0.2374  0.5880  0.1998  -1.3214   0.0000   0.4566
   1.000   1.1805   0.01212   0.00512  -0.2355  0.5647  0.2354  -1.3921   0.0000   0.4457
   1.500   1.2292   0.01250   0.00543  -0.2340  0.5451  0.2737  -1.4649   0.0000   0.4357
   2.000   1.2779   0.01289   0.00578  -0.2324  0.5276  0.3209  -1.5425   0.0000   0.4264
   2.500   1.3255   0.01322   0.00616  -0.2307  0.5111  0.3859  -1.6201   0.0000   0.4178
   3.000   1.3738   0.01351   0.00659  -0.2291  0.4965  0.4656  -1.7008   0.0000   0.4097
   4.000   1.4623   0.01387   0.00746  -0.2244  0.4682  1.0000  -1.8716   0.0000   0.3947
   4.500   1.5063   0.01437   0.00789  -0.2221  0.4542  1.0000  -1.9598   0.0000   0.3878
   5.000   1.5493   0.01492   0.00839  -0.2196  0.4393  1.0000  -2.0479   0.0000   0.3812
   5.500   1.5910   0.01554   0.00894  -0.2170  0.4243  1.0000  -2.1409   0.0000   0.3750
   6.000   1.6308   0.01623   0.00958  -0.2140  0.4083  1.0000  -2.2332   0.0000   0.3689
   6.500   1.6691   0.01700   0.01029  -0.2109  0.3921  1.0000  -2.3286   0.0000   0.3631
   7.000   1.7061   0.01783   0.01109  -0.2076  0.3743  1.0000  -2.4256   0.0000   0.3576
   7.500   1.7408   0.01878   0.01201  -0.2040  0.3547  1.0000  -2.5221   0.0000   0.3521
   8.000   1.7744   0.01985   0.01305  -0.2004  0.3345  1.0000  -2.6229   0.0000   0.3469
   8.500   1.8048   0.02114   0.01429  -0.1964  0.3133  1.0000  -2.7202   0.0000   0.3418
   9.000   1.8331   0.02261   0.01573  -0.1923  0.2936  1.0000  -2.8153   0.0000   0.3369
   9.500   1.8599   0.02425   0.01734  -0.1881  0.2762  1.0000  -2.9143   0.0000   0.3321
  10.000   1.8852   0.02604   0.01914  -0.1839  0.2606  1.0000  -3.0197   0.0000   0.3275
  10.500   1.9087   0.02802   0.02115  -0.1797  0.2477  1.0000  -3.1229   0.0000   0.3230
  11.000   1.9278   0.03040   0.02354  -0.1752  0.2359  1.0000  -3.2196   0.0000   0.3187
  11.500   1.9510   0.03255   0.02580  -0.1715  0.2254  1.0000  -3.3265   0.0000   0.3146
  12.000   1.9694   0.03520   0.02854  -0.1675  0.2160  1.0000  -3.4372   0.0000   0.3106
  12.500   1.9863   0.03809   0.03152  -0.1637  0.2074  1.0000  -3.5459   0.0000   0.3068
  13.000   2.0022   0.04123   0.03481  -0.1602  0.1999  1.0000  -3.6587   0.0000   0.3032
  13.500   2.0160   0.04468   0.03839  -0.1569  0.1921  1.0000  -3.7757   0.0000   0.2998
  14.000   2.0265   0.04868   0.04252  -0.1538  0.1848  1.0000  -3.9097   0.0000   0.2967
  14.500   2.0383   0.05272   0.04675  -0.1512  0.1781  1.0000  -4.0498   0.0000   0.2937
  15.000   2.0424   0.05777   0.05188  -0.1486  0.1712  1.0000  -4.1712   0.0000   0.2910
  15.500   2.0513   0.06250   0.05688  -0.1468  0.1649  1.0000  -4.3258   0.0000   0.2885
  16.000   2.0500   0.06863   0.06307  -0.1451  0.1580  1.0000  -4.4586   0.0000   0.2863
  16.500   2.0545   0.07431   0.06904  -0.1442  0.1521  1.0000  -4.7702   0.0000   0.2843
  17.000   2.0515   0.08114   0.07603  -0.1436  0.1459  1.0000  -5.0680   0.0000   0.2827


