XFLR5 v6.09.06

 Calculated polar for: MIN ponta2016

 1 1 Reynolds number fixed          Mach number fixed         

 xtrf =   1.000 (top)        1.000 (bottom)
 Mach =   0.080     Re =     0.240 e 6     Ncrit =   9.000

  alpha     CL        CD       CDp       Cm    Top Xtr Bot Xtr   Cpmin    Chinge    XCp    
 ------- -------- --------- --------- -------- ------- ------- -------- --------- ---------
 -10.000  -0.1291   0.13886   0.13566  -0.0480  0.9765  0.0233  -1.1522   0.0000  -0.1632
  -9.500  -0.0971   0.13227   0.12905  -0.0551  0.9677  0.0241  -1.1630   0.0000  -0.3716
  -9.000  -0.0706   0.12680   0.12359  -0.0631  0.9590  0.0243  -1.2390   0.0000  -0.7182
  -8.500  -0.0321   0.11890   0.11570  -0.0679  0.9536  0.0248  -1.1153   0.0000  -2.0267
  -8.000  -0.0033   0.11303   0.10983  -0.0719  0.9440  0.0256  -1.0609   0.0000  -23.1129
  -7.500   0.0382   0.10638   0.10318  -0.0798  0.9397  0.0269  -1.0425   0.0000   2.4653
  -7.000   0.0625   0.10088   0.09770  -0.0845  0.9277  0.0283  -1.1079   0.0000   1.6750
  -5.500   0.1470   0.08390   0.08078  -0.0960  0.8967  0.0314  -1.0720   0.0000   0.9276
  -4.500   0.2031   0.07205   0.06897  -0.1048  0.8665  0.0344  -1.1527   0.0000   0.7807
  -3.500   0.2988   0.05892   0.05580  -0.1209  0.8399  0.0403  -1.1721   0.0000   0.6624
  -3.000   0.3878   0.05061   0.04740  -0.1382  0.8313  0.0469  -1.1615   0.0000   0.6115
  -2.500   0.4798   0.04322   0.03989  -0.1544  0.8157  0.0552  -1.0856   0.0000   0.5750
  -2.000   0.7018   0.02523   0.02116  -0.2056  0.8051  0.0487  -1.3026   0.0000   0.5445
  -1.500   0.8897   0.01421   0.00782  -0.2360  0.7888  0.0464  -1.6182   0.0000   0.5160
  -1.000   0.9863   0.01311   0.00645  -0.2439  0.7543  0.0771  -1.3011   0.0000   0.4970
  -0.500   1.0547   0.01296   0.00607  -0.2459  0.7167  0.1324  -1.2073   0.0000   0.4820
   0.000   1.1072   0.01327   0.00619  -0.2447  0.6800  0.1932  -1.2722   0.0000   0.4690
   0.500   1.1543   0.01363   0.00637  -0.2425  0.6465  0.2371  -1.3384   0.0000   0.4573
   1.000   1.2020   0.01401   0.00658  -0.2405  0.6174  0.2787  -1.4094   0.0000   0.4464
   1.500   1.2507   0.01442   0.00686  -0.2388  0.5927  0.3227  -1.4826   0.0000   0.4364
   2.000   1.3009   0.01485   0.00724  -0.2375  0.5716  0.3804  -1.5617   0.0000   0.4272
   2.500   1.3512   0.01524   0.00768  -0.2362  0.5526  0.4610  -1.6416   0.0000   0.4186
   3.000   1.3936   0.01503   0.00814  -0.2333  0.5353  0.8888  -1.7182   0.0000   0.4104
   3.500   1.4410   0.01563   0.00851  -0.2314  0.5187  1.0000  -1.8046   0.0000   0.4027
   4.000   1.4880   0.01628   0.00899  -0.2295  0.5034  1.0000  -1.8949   0.0000   0.3955
   4.500   1.5329   0.01694   0.00948  -0.2272  0.4876  1.0000  -1.9845   0.0000   0.3887
   5.000   1.5727   0.01755   0.01005  -0.2240  0.4720  1.0000  -2.0699   0.0000   0.3820
   5.500   1.6107   0.01820   0.01068  -0.2205  0.4559  1.0000  -2.1597   0.0000   0.3755
   6.000   1.6477   0.01892   0.01139  -0.2168  0.4393  1.0000  -2.2492   0.0000   0.3693
   6.500   1.6825   0.01972   0.01216  -0.2129  0.4222  1.0000  -2.3413   0.0000   0.3634
   7.000   1.7155   0.02060   0.01304  -0.2087  0.4044  1.0000  -2.4337   0.0000   0.3576
   7.500   1.7464   0.02161   0.01404  -0.2043  0.3860  1.0000  -2.5253   0.0000   0.3520
   8.000   1.7746   0.02278   0.01521  -0.1996  0.3662  1.0000  -2.6192   0.0000   0.3465
   8.500   1.8008   0.02414   0.01655  -0.1948  0.3462  1.0000  -2.7110   0.0000   0.3412
   9.000   1.8255   0.02572   0.01811  -0.1900  0.3269  1.0000  -2.8007   0.0000   0.3361
   9.500   1.8483   0.02753   0.01992  -0.1851  0.3085  1.0000  -2.8922   0.0000   0.3312
  10.000   1.8709   0.02951   0.02192  -0.1805  0.2920  1.0000  -2.9926   0.0000   0.3265
  10.500   1.8924   0.03167   0.02414  -0.1760  0.2771  1.0000  -3.0917   0.0000   0.3219
  11.000   1.9128   0.03406   0.02658  -0.1717  0.2639  1.0000  -3.1890   0.0000   0.3176
  11.500   1.9329   0.03666   0.02917  -0.1677  0.2523  1.0000  -3.2878   0.0000   0.3135
  12.000   1.9503   0.03938   0.03207  -0.1636  0.2415  1.0000  -3.3953   0.0000   0.3095
  12.500   1.9678   0.04236   0.03518  -0.1599  0.2316  1.0000  -3.5033   0.0000   0.3057
  13.000   1.9830   0.04560   0.03850  -0.1563  0.2223  1.0000  -3.6132   0.0000   0.3021
  13.500   1.9981   0.04906   0.04218  -0.1530  0.2141  1.0000  -3.7279   0.0000   0.2987
  14.000   2.0109   0.05277   0.04601  -0.1499  0.2061  1.0000  -3.8612   0.0000   0.2954
  14.500   2.0207   0.05698   0.05046  -0.1471  0.1983  1.0000  -3.9947   0.0000   0.2924
  15.000   2.0285   0.06147   0.05512  -0.1446  0.1909  1.0000  -4.1254   0.0000   0.2896
  15.500   2.0371   0.06613   0.05999  -0.1425  0.1840  1.0000  -4.2715   0.0000   0.2869
  16.000   2.0372   0.07181   0.06593  -0.1407  0.1770  1.0000  -4.4067   0.0000   0.2847
  16.500   2.0427   0.07705   0.07131  -0.1393  0.1699  1.0000  -4.6557   0.0000   0.2824
  17.000   2.0352   0.08414   0.07874  -0.1386  0.1632  1.0000  -4.9218   0.0000   0.2809


