XFLR5 v6.09.06

 Calculated polar for: MIN ponta2016

 1 1 Reynolds number fixed          Mach number fixed         

 xtrf =   1.000 (top)        1.000 (bottom)
 Mach =   0.080     Re =     0.120 e 6     Ncrit =   9.000

  alpha     CL        CD       CDp       Cm    Top Xtr Bot Xtr   Cpmin    Chinge    XCp    
 ------- -------- --------- --------- -------- ------- ------- -------- --------- ---------
 -10.000  -0.2438   0.15338   0.14919  -0.0188  1.0000  0.0385  -1.1959   0.0000   0.1548
  -9.500  -0.2511   0.15167   0.14759  -0.0179  1.0000  0.0389  -1.2517   0.0000   0.1624
  -8.500  -0.2075   0.13988   0.13588  -0.0242  0.9902  0.0406  -1.1326   0.0000   0.1141
  -8.000  -0.1658   0.13322   0.12921  -0.0331  0.9779  0.0427  -1.0841   0.0000   0.0264
  -6.500  -0.0626   0.11477   0.11078  -0.0543  0.9396  0.0481  -1.0916   0.0000  -0.6780
  -6.000  -0.0423   0.10992   0.10598  -0.0576  0.9216  0.0508  -1.0997   0.0000  -1.1945
  -5.500  -0.0344   0.10784   0.10394  -0.0647  0.8999  0.0527  -1.2518   0.0000  -1.7294
  -5.000   0.0011   0.09951   0.09563  -0.0652  0.8863  0.0546  -1.1460   0.0000  59.7162
  -4.500   0.0357   0.09360   0.08974  -0.0702  0.8695  0.0588  -1.1206   0.0000   2.2956
  -4.000   0.0784   0.08688   0.08302  -0.0805  0.8514  0.0629  -1.1815   0.0000   1.3085
  -3.500   0.1559   0.08003   0.07609  -0.1010  0.8341  0.0722  -1.2539   0.0000   0.9128
  -2.000   0.3775   0.05645   0.05231  -0.1318  0.7985  0.1005  -1.0040   0.0000   0.6024
  -1.500   0.5035   0.04741   0.04308  -0.1511  0.7954  0.1190  -0.8635   0.0000   0.5515
  -1.000   0.8202   0.02482   0.01813  -0.2173  0.7976  0.0788  -1.3765   0.0000   0.5149
  -0.500   0.9320   0.02127   0.01395  -0.2268  0.7817  0.1184  -1.1708   0.0000   0.4924
   0.000   1.0430   0.01955   0.01194  -0.2361  0.7609  0.2073  -1.2164   0.0000   0.4746
   0.500   1.1237   0.01921   0.01144  -0.2402  0.7332  0.2872  -1.3043   0.0000   0.4612
   1.000   1.1921   0.01920   0.01125  -0.2420  0.7048  0.3470  -1.3903   0.0000   0.4496
   1.500   1.2544   0.01934   0.01124  -0.2427  0.6790  0.4077  -1.4733   0.0000   0.4392
   2.000   1.3053   0.01956   0.01144  -0.2412  0.6532  0.4835  -1.5514   0.0000   0.4297
   2.500   1.3559   0.01940   0.01164  -0.2396  0.6305  0.6872  -1.6306   0.0000   0.4208
   3.000   1.4057   0.01976   0.01177  -0.2379  0.6093  1.0000  -1.7129   0.0000   0.4124
   3.500   1.4582   0.02057   0.01226  -0.2369  0.5888  1.0000  -1.8031   0.0000   0.4048
   4.000   1.5090   0.02144   0.01288  -0.2357  0.5688  1.0000  -1.8963   0.0000   0.3977
   4.500   1.5573   0.02236   0.01362  -0.2340  0.5490  1.0000  -1.9882   0.0000   0.3909
   5.000   1.6033   0.02331   0.01447  -0.2319  0.5298  1.0000  -2.0803   0.0000   0.3844
   5.500   1.6469   0.02427   0.01533  -0.2295  0.5104  1.0000  -2.1752   0.0000   0.3782
   6.000   1.6886   0.02522   0.01626  -0.2266  0.4911  1.0000  -2.2691   0.0000   0.3722
   6.500   1.7279   0.02618   0.01717  -0.2234  0.4714  1.0000  -2.3673   0.0000   0.3663
   7.000   1.7650   0.02715   0.01811  -0.2198  0.4515  1.0000  -2.4639   0.0000   0.3606
   8.000   1.8264   0.02932   0.02029  -0.2105  0.4113  1.0000  -2.6532   0.0000   0.3494
   8.500   1.8503   0.03058   0.02160  -0.2048  0.3920  1.0000  -2.7401   0.0000   0.3439
   9.000   1.8719   0.03199   0.02307  -0.1989  0.3730  1.0000  -2.8266   0.0000   0.3385
   9.500   1.8950   0.03358   0.02469  -0.1936  0.3551  1.0000  -2.9223   0.0000   0.3334
  10.000   1.9197   0.03532   0.02647  -0.1888  0.3383  1.0000  -3.0245   0.0000   0.3285
  10.500   1.9472   0.03715   0.02829  -0.1847  0.3223  1.0000  -3.1317   0.0000   0.3240
  11.000   1.9593   0.03954   0.03095  -0.1785  0.3083  1.0000  -3.2132   0.0000   0.3192
  11.500   1.9754   0.04217   0.03377  -0.1733  0.2950  1.0000  -3.3117   0.0000   0.3147
  12.000   1.9991   0.04474   0.03646  -0.1695  0.2830  1.0000  -3.4278   0.0000   0.3107
  12.500   2.0323   0.04697   0.03869  -0.1670  0.2710  1.0000  -3.5673   0.0000   0.3070
  13.000   2.0253   0.05109   0.04328  -0.1601  0.2612  1.0000  -3.6326   0.0000   0.3027
  13.500   2.0523   0.05396   0.04622  -0.1574  0.2510  1.0000  -3.7842   0.0000   0.2992
  14.000   2.0454   0.05858   0.05125  -0.1517  0.2421  1.0000  -3.8758   0.0000   0.2955
  14.500   2.0614   0.06246   0.05534  -0.1487  0.2335  1.0000  -4.0219   0.0000   0.2922
  15.000   2.0425   0.06854   0.06185  -0.1436  0.2255  1.0000  -4.0824   0.0000   0.2891
  15.500   1.5689   0.14952   0.14445  -0.1624  0.2150  1.0000  -2.7820   0.0000   0.3222
  16.000   1.6493   0.13939   0.13447  -0.1552  0.2118  1.0000  -3.1078   0.0000   0.3110
  16.500   1.6152   0.15479   0.14999  -0.1617  0.2023  1.0000  -3.0411   0.0000   0.3160
  17.000   1.7580   0.13239   0.12769  -0.1479  0.1996  1.0000  -3.6211   0.0000   0.2979


