XFLR5 v6.09.06

 Calculated polar for: MIN ponta2016

 1 1 Reynolds number fixed          Mach number fixed         

 xtrf =   1.000 (top)        1.000 (bottom)
 Mach =   0.000     Re =     0.380 e 6     Ncrit =   9.000

  alpha     CL        CD       CDp       Cm    Top Xtr Bot Xtr   Cpmin    Chinge    XCp    
 ------- -------- --------- --------- -------- ------- ------- -------- --------- ---------
 -10.000  -0.0492   0.12817   0.12544  -0.0733  0.9645  0.0171  -1.3456   0.0000  -1.3638
  -9.500  -0.0210   0.12133   0.11861  -0.0751  0.9571  0.0174  -1.1786   0.0000  -3.6109
  -9.000   0.0164   0.11480   0.11208  -0.0817  0.9536  0.0178  -1.0818   0.0000   5.5933
  -8.000   0.1715   0.07805   0.07552  -0.1028  0.9172  0.0205  -1.0180   0.0000   0.8723
  -7.500   0.0999   0.09737   0.09469  -0.0951  0.9322  0.0201  -1.0894   0.0000   1.2528
  -7.000   0.1319   0.09113   0.08844  -0.1054  0.9267  0.0205  -1.3091   0.0000   1.0864
  -6.500   0.1549   0.08557   0.08292  -0.1043  0.9159  0.0209  -1.1753   0.0000   0.9529
  -6.000   0.1972   0.07961   0.07697  -0.1105  0.9122  0.0218  -1.0813   0.0000   0.8320
  -5.500   0.2126   0.07506   0.07244  -0.1108  0.8984  0.0228  -1.0833   0.0000   0.7895
  -5.000   0.2461   0.06773   0.06510  -0.1220  0.8831  0.0243  -1.3766   0.0000   0.7605
  -3.000   0.4849   0.04087   0.03801  -0.1619  0.8198  0.0345  -1.2705   0.0000   0.5883
  -2.500   0.7171   0.02042   0.01667  -0.2195  0.8065  0.0363  -1.6022   0.0000   0.5586
  -2.000   0.8751   0.01158   0.00567  -0.2432  0.7800  0.0285  -1.8740   0.0000   0.5295
  -1.500   0.9487   0.01107   0.00488  -0.2467  0.7415  0.0424  -1.5869   0.0000   0.5107
  -1.000   1.0032   0.01098   0.00458  -0.2461  0.7038  0.0666  -1.2995   0.0000   0.4950
  -0.500   1.0487   0.01106   0.00451  -0.2437  0.6636  0.1122  -1.2021   0.0000   0.4811
   0.000   1.0903   0.01141   0.00470  -0.2404  0.6255  0.1662  -1.2591   0.0000   0.4684
   0.500   1.1343   0.01183   0.00493  -0.2377  0.5938  0.2031  -1.3224   0.0000   0.4566
   1.000   1.1815   0.01226   0.00522  -0.2358  0.5695  0.2393  -1.3927   0.0000   0.4458
   1.500   1.2302   0.01265   0.00553  -0.2342  0.5494  0.2781  -1.4655   0.0000   0.4358
   2.000   1.2789   0.01301   0.00587  -0.2326  0.5318  0.3262  -1.5430   0.0000   0.4265
   2.500   1.3269   0.01335   0.00628  -0.2310  0.5150  0.3921  -1.6209   0.0000   0.4178
   3.000   1.3750   0.01369   0.00671  -0.2294  0.5002  0.4757  -1.7015   0.0000   0.4098
   4.000   1.4629   0.01405   0.00756  -0.2246  0.4715  1.0000  -1.8717   0.0000   0.3947
   4.500   1.5074   0.01455   0.00800  -0.2223  0.4575  1.0000  -1.9603   0.0000   0.3879
   5.000   1.5499   0.01514   0.00852  -0.2197  0.4428  1.0000  -2.0479   0.0000   0.3813
   5.500   1.5910   0.01578   0.00908  -0.2170  0.4277  1.0000  -2.1402   0.0000   0.3750
   6.000   1.6302   0.01650   0.00973  -0.2139  0.4115  1.0000  -2.2319   0.0000   0.3689
   6.500   1.6682   0.01725   0.01044  -0.2107  0.3951  1.0000  -2.3269   0.0000   0.3631
   7.000   1.7052   0.01806   0.01125  -0.2074  0.3775  1.0000  -2.4238   0.0000   0.3575
   7.500   1.7387   0.01907   0.01219  -0.2037  0.3581  1.0000  -2.5187   0.0000   0.3521
   8.000   1.7720   0.02014   0.01326  -0.2000  0.3382  1.0000  -2.6190   0.0000   0.3468
   8.500   1.8026   0.02140   0.01449  -0.1961  0.3173  1.0000  -2.7165   0.0000   0.3418
   9.000   1.8310   0.02287   0.01593  -0.1919  0.2973  1.0000  -2.8115   0.0000   0.3368
   9.500   1.8576   0.02451   0.01755  -0.1877  0.2797  1.0000  -2.9099   0.0000   0.3320
  10.000   1.8822   0.02635   0.01939  -0.1835  0.2640  1.0000  -3.0142   0.0000   0.3274
  10.500   1.9043   0.02843   0.02148  -0.1791  0.2507  1.0000  -3.1150   0.0000   0.3229
  11.000   1.9253   0.03068   0.02377  -0.1748  0.2388  1.0000  -3.2146   0.0000   0.3186
  11.500   1.9477   0.03291   0.02612  -0.1710  0.2282  1.0000  -3.3194   0.0000   0.3145
  12.000   1.9632   0.03581   0.02905  -0.1667  0.2184  1.0000  -3.4249   0.0000   0.3105
  12.500   1.9831   0.03845   0.03185  -0.1633  0.2098  1.0000  -3.5387   0.0000   0.3068
  13.000   1.9960   0.04188   0.03536  -0.1595  0.2020  1.0000  -3.6453   0.0000   0.3031
  13.500   2.0125   0.04510   0.03877  -0.1564  0.1944  1.0000  -3.7666   0.0000   0.2998
  14.000   2.0203   0.04938   0.04311  -0.1531  0.1867  1.0000  -3.8935   0.0000   0.2966
  14.500   2.0339   0.05323   0.04722  -0.1507  0.1802  1.0000  -4.0372   0.0000   0.2936
  15.000   2.0382   0.05825   0.05230  -0.1482  0.1732  1.0000  -4.1594   0.0000   0.2909
  15.500   2.0463   0.06307   0.05739  -0.1463  0.1669  1.0000  -4.3097   0.0000   0.2884
  16.000   2.0478   0.06888   0.06334  -0.1448  0.1602  1.0000  -4.4501   0.0000   0.2863
  16.500   2.0494   0.07486   0.06952  -0.1437  0.1540  1.0000  -4.7391   0.0000   0.2842
  17.000   2.0485   0.08143   0.07632  -0.1432  0.1477  1.0000  -5.0473   0.0000   0.2826


