XFLR5 v6.09.06

 Calculated polar for: MIN ponta2016

 1 1 Reynolds number fixed          Mach number fixed         

 xtrf =   1.000 (top)        1.000 (bottom)
 Mach =   0.080     Re =     0.420 e 6     Ncrit =   9.000

  alpha     CL        CD       CDp       Cm    Top Xtr Bot Xtr   Cpmin    Chinge    XCp    
 ------- -------- --------- --------- -------- ------- ------- -------- --------- ---------
 -10.000  -0.0213   0.12534   0.12270  -0.0771  0.9640  0.0168  -1.1635   0.0000  -3.6737
  -9.500  -0.0012   0.11961   0.11698  -0.0810  0.9554  0.0169  -1.2060   0.0000  -71.5215
  -9.000   0.0341   0.11295   0.11031  -0.0904  0.9526  0.0170  -1.2870   0.0000   3.0764
  -8.500   0.0568   0.10683   0.10422  -0.0907  0.9443  0.0173  -1.1774   0.0000   1.9476
  -8.000   0.0952   0.10060   0.09799  -0.0966  0.9411  0.0177  -1.0827   0.0000   1.3235
  -7.000   0.1554   0.08932   0.08674  -0.1055  0.9277  0.0193  -1.0482   0.0000   0.9617
  -6.500   0.1735   0.08419   0.08163  -0.1083  0.9161  0.0203  -1.1510   0.0000   0.9011
  -6.000   0.1836   0.07918   0.07665  -0.1123  0.9022  0.0205  -1.3717   0.0000   0.8849
  -5.500   0.2277   0.07290   0.07038  -0.1152  0.8985  0.0211  -1.1536   0.0000   0.7732
  -4.500   0.2994   0.06016   0.05762  -0.1306  0.8685  0.0243  -1.3778   0.0000   0.6972
  -4.000   0.3356   0.05521   0.05266  -0.1323  0.8529  0.0251  -1.2225   0.0000   0.6526
  -3.500   0.4239   0.04566   0.04298  -0.1535  0.8345  0.0289  -1.4090   0.0000   0.6183
  -3.000   0.5326   0.03691   0.03403  -0.1755  0.8150  0.0340  -1.3875   0.0000   0.5838
  -2.500   0.7492   0.01900   0.01512  -0.2271  0.7957  0.0405  -1.5642   0.0000   0.5555
  -2.000   0.8892   0.01108   0.00522  -0.2462  0.7638  0.0271  -1.8737   0.0000   0.5284
  -1.500   0.9518   0.01080   0.00463  -0.2472  0.7259  0.0395  -1.6164   0.0000   0.5103
  -1.000   1.0018   0.01076   0.00439  -0.2456  0.6878  0.0610  -1.3299   0.0000   0.4949
  -0.500   1.0457   0.01084   0.00433  -0.2428  0.6464  0.1018  -1.2035   0.0000   0.4810
   0.000   1.0886   0.01119   0.00454  -0.2398  0.6098  0.1579  -1.2614   0.0000   0.4682
   0.500   1.1340   0.01163   0.00480  -0.2374  0.5806  0.1953  -1.3258   0.0000   0.4564
   1.000   1.1819   0.01204   0.00508  -0.2356  0.5582  0.2300  -1.3969   0.0000   0.4455
   1.500   1.2307   0.01241   0.00539  -0.2339  0.5393  0.2679  -1.4701   0.0000   0.4355
   2.000   1.2797   0.01276   0.00574  -0.2324  0.5224  0.3136  -1.5482   0.0000   0.4262
   2.500   1.3278   0.01314   0.00614  -0.2307  0.5062  0.3772  -1.6267   0.0000   0.4175
   3.000   1.3760   0.01347   0.00655  -0.2291  0.4917  0.4536  -1.7076   0.0000   0.4094
   3.500   1.4210   0.01326   0.00708  -0.2269  0.4776  0.8568  -1.7920   0.0000   0.4017
   4.000   1.4654   0.01372   0.00743  -0.2245  0.4637  1.0000  -1.8801   0.0000   0.3944
   4.500   1.5092   0.01433   0.00789  -0.2221  0.4496  1.0000  -1.9686   0.0000   0.3875
   5.000   1.5523   0.01487   0.00839  -0.2195  0.4345  1.0000  -2.0574   0.0000   0.3809
   5.500   1.5947   0.01546   0.00894  -0.2169  0.4192  1.0000  -2.1514   0.0000   0.3746
   6.000   1.6349   0.01614   0.00959  -0.2140  0.4031  1.0000  -2.2448   0.0000   0.3686
   6.500   1.6742   0.01689   0.01029  -0.2110  0.3868  1.0000  -2.3418   0.0000   0.3628
   7.000   1.7114   0.01774   0.01111  -0.2077  0.3685  1.0000  -2.4397   0.0000   0.3572
   7.500   1.7462   0.01873   0.01204  -0.2041  0.3485  1.0000  -2.5369   0.0000   0.3518
   8.000   1.7791   0.01987   0.01314  -0.2003  0.3280  1.0000  -2.6375   0.0000   0.3465
   8.500   1.8086   0.02126   0.01445  -0.1962  0.3070  1.0000  -2.7344   0.0000   0.3414
   9.000   1.8363   0.02281   0.01595  -0.1919  0.2877  1.0000  -2.8293   0.0000   0.3365
   9.500   1.8628   0.02451   0.01763  -0.1876  0.2706  1.0000  -2.9278   0.0000   0.3317
  10.000   1.8889   0.02630   0.01943  -0.1835  0.2555  1.0000  -3.0352   0.0000   0.3271
  10.500   1.9144   0.02818   0.02138  -0.1796  0.2431  1.0000  -3.1423   0.0000   0.3226
  11.000   1.9361   0.03040   0.02366  -0.1753  0.2320  1.0000  -3.2440   0.0000   0.3183
  11.500   1.9539   0.03303   0.02631  -0.1710  0.2213  1.0000  -3.3421   0.0000   0.3142
  12.000   1.9761   0.03541   0.02885  -0.1674  0.2123  1.0000  -3.4605   0.0000   0.3102
  12.500   1.9880   0.03882   0.03228  -0.1631  0.2035  1.0000  -3.5609   0.0000   0.3064
  13.000   2.0090   0.04156   0.03524  -0.1601  0.1966  1.0000  -3.6840   0.0000   0.3029
  13.500   2.0174   0.04563   0.03937  -0.1564  0.1886  1.0000  -3.7893   0.0000   0.2995
  14.000   2.0331   0.04918   0.04314  -0.1537  0.1819  1.0000  -3.9353   0.0000   0.2963
  14.500   2.0406   0.05377   0.04784  -0.1510  0.1751  1.0000  -4.0664   0.0000   0.2934
  15.000   2.0482   0.05855   0.05281  -0.1487  0.1688  1.0000  -4.1973   0.0000   0.2907
  15.500   2.0539   0.06376   0.05820  -0.1469  0.1621  1.0000  -4.3425   0.0000   0.2883
  16.000   2.0537   0.06987   0.06445  -0.1453  0.1556  1.0000  -4.4789   0.0000   0.2862
  16.500   2.0569   0.07583   0.07067  -0.1444  0.1494  1.0000  -4.7664   0.0000   0.2842
  17.000   2.0503   0.08320   0.07811  -0.1438  0.1428  1.0000  -5.0459   0.0000   0.2827


