XFLR5 v6.09.06

 Calculated polar for: MIN ponta2016

 1 1 Reynolds number fixed          Mach number fixed         

 xtrf =   1.000 (top)        1.000 (bottom)
 Mach =   0.080     Re =     0.380 e 6     Ncrit =   9.000

  alpha     CL        CD       CDp       Cm    Top Xtr Bot Xtr   Cpmin    Chinge    XCp    
 ------- -------- --------- --------- -------- ------- ------- -------- --------- ---------
  -9.500  -0.0186   0.12139   0.11867  -0.0755  0.9568  0.0174  -1.1692   0.0000  -4.1276
  -9.000   0.0191   0.11484   0.11211  -0.0823  0.9534  0.0179  -1.0756   0.0000   4.8537
  -8.000   0.0795   0.10292   0.10022  -0.0922  0.9413  0.0193  -1.0392   0.0000   1.4779
  -7.500   0.1023   0.09739   0.09470  -0.0956  0.9317  0.0202  -1.0947   0.0000   1.2352
  -7.000   0.1349   0.09114   0.08845  -0.1061  0.9265  0.0205  -1.3129   0.0000   1.0738
  -6.500   0.1583   0.08558   0.08293  -0.1048  0.9157  0.0209  -1.1623   0.0000   0.9410
  -6.000   0.2009   0.07959   0.07694  -0.1111  0.9121  0.0218  -1.0749   0.0000   0.8246
  -5.500   0.2159   0.07506   0.07244  -0.1114  0.8982  0.0229  -1.0800   0.0000   0.7840
  -5.000   0.2489   0.06776   0.06513  -0.1226  0.8827  0.0243  -1.3779   0.0000   0.7569
  -4.000   0.3171   0.05766   0.05504  -0.1263  0.8541  0.0268  -1.1341   0.0000   0.6570
  -3.500   0.3855   0.04973   0.04702  -0.1410  0.8364  0.0295  -1.2356   0.0000   0.6222
  -3.000   0.4862   0.04105   0.03818  -0.1619  0.8180  0.0345  -1.2666   0.0000   0.5874
  -2.500   0.7186   0.02046   0.01672  -0.2199  0.8035  0.0358  -1.6156   0.0000   0.5585
  -2.000   0.8799   0.01163   0.00570  -0.2444  0.7770  0.0284  -1.8735   0.0000   0.5293
  -1.500   0.9512   0.01115   0.00493  -0.2473  0.7382  0.0416  -1.5951   0.0000   0.5106
  -0.500   1.0498   0.01112   0.00457  -0.2438  0.6601  0.1086  -1.2060   0.0000   0.4810
   0.000   1.0919   0.01147   0.00475  -0.2406  0.6225  0.1641  -1.2635   0.0000   0.4683
   0.500   1.1363   0.01190   0.00499  -0.2380  0.5914  0.2014  -1.3271   0.0000   0.4565
   1.000   1.1841   0.01235   0.00528  -0.2361  0.5676  0.2378  -1.3982   0.0000   0.4456
   1.500   1.2331   0.01275   0.00560  -0.2345  0.5477  0.2764  -1.4715   0.0000   0.4356
   2.000   1.2819   0.01310   0.00595  -0.2329  0.5302  0.3239  -1.5495   0.0000   0.4263
   2.500   1.3299   0.01344   0.00635  -0.2312  0.5135  0.3891  -1.6278   0.0000   0.4176
   3.000   1.3782   0.01377   0.00679  -0.2296  0.4987  0.4713  -1.7088   0.0000   0.4095
   4.000   1.4666   0.01417   0.00766  -0.2248  0.4700  1.0000  -1.8803   0.0000   0.3945
   4.500   1.5108   0.01466   0.00811  -0.2224  0.4559  1.0000  -1.9691   0.0000   0.3876
   5.000   1.5535   0.01524   0.00863  -0.2198  0.4411  1.0000  -2.0574   0.0000   0.3810
   5.500   1.5949   0.01589   0.00920  -0.2170  0.4259  1.0000  -2.1504   0.0000   0.3747
   6.000   1.6341   0.01661   0.00987  -0.2139  0.4097  1.0000  -2.2427   0.0000   0.3686
   6.500   1.6719   0.01740   0.01060  -0.2106  0.3932  1.0000  -2.3378   0.0000   0.3627
   7.000   1.7084   0.01826   0.01143  -0.2072  0.3753  1.0000  -2.4347   0.0000   0.3571
   7.500   1.7427   0.01924   0.01239  -0.2035  0.3558  1.0000  -2.5309   0.0000   0.3517
   8.000   1.7757   0.02036   0.01349  -0.1997  0.3355  1.0000  -2.6314   0.0000   0.3464
   8.500   1.8059   0.02168   0.01477  -0.1957  0.3144  1.0000  -2.7289   0.0000   0.3413
   9.000   1.8336   0.02321   0.01627  -0.1914  0.2947  1.0000  -2.8236   0.0000   0.3363
   9.500   1.8598   0.02492   0.01796  -0.1871  0.2774  1.0000  -2.9214   0.0000   0.3315
  10.000   1.8846   0.02679   0.01984  -0.1828  0.2619  1.0000  -3.0266   0.0000   0.3269
  10.500   1.9072   0.02888   0.02196  -0.1785  0.2489  1.0000  -3.1288   0.0000   0.3224
  11.000   1.9260   0.03135   0.02444  -0.1740  0.2372  1.0000  -3.2255   0.0000   0.3181
  11.500   1.9491   0.03358   0.02680  -0.1702  0.2268  1.0000  -3.3312   0.0000   0.3140
  12.000   1.9656   0.03646   0.02976  -0.1661  0.2173  1.0000  -3.4390   0.0000   0.3100
  12.500   1.9838   0.03933   0.03276  -0.1625  0.2086  1.0000  -3.5504   0.0000   0.3063
  13.000   1.9976   0.04276   0.03629  -0.1588  0.2010  1.0000  -3.6587   0.0000   0.3027
  13.500   2.0124   0.04623   0.03994  -0.1557  0.1933  1.0000  -3.7758   0.0000   0.2994
  14.000   2.0212   0.05051   0.04431  -0.1526  0.1859  1.0000  -3.9036   0.0000   0.2962
  14.500   2.0335   0.05459   0.04862  -0.1502  0.1792  1.0000  -4.0454   0.0000   0.2933
  15.000   2.0368   0.05981   0.05389  -0.1476  0.1720  1.0000  -4.1658   0.0000   0.2906
  15.500   2.0452   0.06473   0.05911  -0.1460  0.1660  1.0000  -4.3141   0.0000   0.2882
  16.000   2.0453   0.07080   0.06529  -0.1445  0.1592  1.0000  -4.4512   0.0000   0.2861
  16.500   2.0473   0.07686   0.07160  -0.1435  0.1531  1.0000  -4.7070   0.0000   0.2842
  17.000   2.0453   0.08369   0.07862  -0.1432  0.1467  1.0000  -5.0113   0.0000   0.2826


