XFLR5 v6.09.06

 Calculated polar for: MIN ponta2016

 1 1 Reynolds number fixed          Mach number fixed         

 xtrf =   1.000 (top)        1.000 (bottom)
 Mach =   0.080     Re =     0.260 e 6     Ncrit =   9.000

  alpha     CL        CD       CDp       Cm    Top Xtr Bot Xtr   Cpmin    Chinge    XCp    
 ------- -------- --------- --------- -------- ------- ------- -------- --------- ---------
 -10.000  -0.1114   0.13671   0.13359  -0.0528  0.9751  0.0217  -1.1550   0.0000  -0.2737
  -9.500  -0.0801   0.13009   0.12697  -0.0586  0.9661  0.0224  -1.1090   0.0000  -0.5494
  -9.000  -0.0504   0.12378   0.12066  -0.0641  0.9580  0.0233  -1.0779   0.0000  -1.1270
  -8.500  -0.0147   0.11730   0.11417  -0.0726  0.9527  0.0242  -1.1279   0.0000  -5.0296
  -7.500   0.0528   0.10422   0.10111  -0.0840  0.9391  0.0251  -1.0822   0.0000   1.9343
  -7.000   0.0784   0.09880   0.09572  -0.0871  0.9277  0.0261  -1.0501   0.0000   1.4190
  -6.500   0.1025   0.09345   0.09039  -0.0903  0.9156  0.0275  -1.0621   0.0000   1.1736
  -6.000   0.1130   0.08925   0.08622  -0.0946  0.9003  0.0285  -1.2381   0.0000   1.1218
  -5.500   0.1407   0.08303   0.08003  -0.0959  0.8893  0.0291  -1.1722   0.0000   0.9580
  -5.000   0.1855   0.07658   0.07357  -0.1019  0.8820  0.0309  -1.0874   0.0000   0.8178
  -4.500   0.2336   0.06906   0.06603  -0.1183  0.8659  0.0335  -1.3644   0.0000   0.7694
  -2.000   0.6524   0.03172   0.02810  -0.1891  0.7975  0.0648  -0.9863   0.0000   0.5414
  -1.500   0.9054   0.01347   0.00708  -0.2388  0.7816  0.0456  -1.6117   0.0000   0.5144
  -1.000   0.9930   0.01262   0.00600  -0.2449  0.7447  0.0757  -1.2975   0.0000   0.4964
  -0.500   1.0548   0.01257   0.00576  -0.2457  0.7067  0.1287  -1.2079   0.0000   0.4818
   0.000   1.1043   0.01291   0.00589  -0.2439  0.6696  0.1876  -1.2707   0.0000   0.4688
   0.500   1.1519   0.01326   0.00605  -0.2418  0.6368  0.2306  -1.3372   0.0000   0.4571
   1.000   1.1993   0.01367   0.00628  -0.2398  0.6079  0.2713  -1.4079   0.0000   0.4462
   1.500   1.2488   0.01409   0.00658  -0.2383  0.5844  0.3140  -1.4818   0.0000   0.4362
   2.000   1.2983   0.01452   0.00696  -0.2368  0.5640  0.3698  -1.5603   0.0000   0.4270
   2.500   1.3487   0.01492   0.00740  -0.2356  0.5456  0.4467  -1.6405   0.0000   0.4185
   3.000   1.3986   0.01513   0.00794  -0.2344  0.5281  0.6422  -1.7239   0.0000   0.4105
   3.500   1.4366   0.01523   0.00823  -0.2304  0.5123  1.0000  -1.8016   0.0000   0.4025
   4.000   1.4816   0.01581   0.00870  -0.2281  0.4970  1.0000  -1.8900   0.0000   0.3952
   4.500   1.5253   0.01644   0.00921  -0.2256  0.4816  1.0000  -1.9782   0.0000   0.3883
   5.000   1.5682   0.01710   0.00977  -0.2230  0.4667  1.0000  -2.0666   0.0000   0.3817
   5.500   1.6078   0.01779   0.01035  -0.2198  0.4507  1.0000  -2.1584   0.0000   0.3754
   6.000   1.6438   0.01847   0.01105  -0.2160  0.4343  1.0000  -2.2469   0.0000   0.3691
   6.500   1.6787   0.01925   0.01182  -0.2121  0.4170  1.0000  -2.3389   0.0000   0.3632
   7.500   1.7439   0.02114   0.01370  -0.2038  0.3808  1.0000  -2.5243   0.0000   0.3518
   8.000   1.7723   0.02234   0.01486  -0.1992  0.3610  1.0000  -2.6187   0.0000   0.3464
   8.500   1.7991   0.02373   0.01623  -0.1945  0.3413  1.0000  -2.7112   0.0000   0.3411
   9.000   1.8241   0.02533   0.01780  -0.1897  0.3218  1.0000  -2.8016   0.0000   0.3360
   9.500   1.8478   0.02712   0.01960  -0.1851  0.3033  1.0000  -2.8941   0.0000   0.3311
  10.000   1.8701   0.02914   0.02162  -0.1805  0.2870  1.0000  -2.9943   0.0000   0.3265
  10.500   1.8914   0.03131   0.02384  -0.1760  0.2721  1.0000  -3.0935   0.0000   0.3219
  11.000   1.9127   0.03360   0.02624  -0.1718  0.2590  1.0000  -3.1924   0.0000   0.3176
  11.500   1.9325   0.03617   0.02889  -0.1677  0.2478  1.0000  -3.2899   0.0000   0.3135
  12.000   1.9501   0.03905   0.03176  -0.1637  0.2369  1.0000  -3.3987   0.0000   0.3095
  12.500   1.9667   0.04197   0.03494  -0.1599  0.2274  1.0000  -3.5052   0.0000   0.3058
  13.000   1.9830   0.04526   0.03825  -0.1565  0.2183  1.0000  -3.6167   0.0000   0.3022
  13.500   1.9963   0.04878   0.04204  -0.1532  0.2104  1.0000  -3.7277   0.0000   0.2988
  14.000   2.0113   0.05244   0.04574  -0.1503  0.2023  1.0000  -3.8658   0.0000   0.2955
  14.500   2.0181   0.05688   0.05049  -0.1474  0.1948  1.0000  -3.9926   0.0000   0.2926
  15.000   2.0322   0.06086   0.05448  -0.1451  0.1871  1.0000  -4.1394   0.0000   0.2897
  15.500   2.0331   0.06634   0.06034  -0.1429  0.1808  1.0000  -4.2638   0.0000   0.2873
  16.000   2.0389   0.07141   0.06550  -0.1412  0.1737  1.0000  -4.4173   0.0000   0.2849
  16.500   2.0372   0.07768   0.07210  -0.1400  0.1670  1.0000  -4.6285   0.0000   0.2830
  17.000   2.0355   0.08409   0.07868  -0.1394  0.1603  1.0000  -4.9313   0.0000   0.2813


