XFLR5 v6.09.06

 Calculated polar for: MIN ponta2016

 1 1 Reynolds number fixed          Mach number fixed         

 xtrf =   1.000 (top)        1.000 (bottom)
 Mach =   0.000     Re =     0.100 e 6     Ncrit =   9.000

  alpha     CL        CD       CDp       Cm    Top Xtr Bot Xtr   Cpmin    Chinge    XCp    
 ------- -------- --------- --------- -------- ------- ------- -------- --------- ---------
 -10.000  -0.2417   0.15421   0.14960  -0.0201  1.0000  0.0449  -1.1884   0.0000   0.1486
  -9.500  -0.2515   0.15325   0.14877  -0.0193  1.0000  0.0453  -1.2523   0.0000   0.1569
  -9.000  -0.2509   0.14849   0.14412  -0.0171  1.0000  0.0458  -1.2231   0.0000   0.1664
  -8.500  -0.2489   0.14401   0.13975  -0.0143  1.0000  0.0469  -1.1575   0.0000   0.1778
  -8.000  -0.2479   0.14071   0.13654  -0.0131  0.9991  0.0482  -1.1286   0.0000   0.1828
  -7.500  -0.1957   0.13405   0.12984  -0.0259  0.9850  0.0515  -1.1219   0.0000   0.0990
  -7.000  -0.1757   0.13227   0.12809  -0.0372  0.9654  0.0528  -1.2639   0.0000   0.0180
  -6.000  -0.0945   0.11602   0.11186  -0.0466  0.9363  0.0584  -1.1099   0.0000  -0.2787
  -5.500  -0.0844   0.11381   0.10969  -0.0528  0.9142  0.0612  -1.2160   0.0000  -0.4138
  -5.000  -0.0479   0.10583   0.10174  -0.0567  0.8986  0.0633  -1.1706   0.0000  -0.9969
  -4.500  -0.0084   0.09971   0.09562  -0.0627  0.8816  0.0694  -1.1329   0.0000  -7.5727
  -4.000   0.0344   0.09294   0.08886  -0.0716  0.8642  0.0743  -1.1521   0.0000   2.4101
  -3.500   0.0671   0.08769   0.08361  -0.0757  0.8417  0.0811  -1.1247   0.0000   1.4120
  -3.000   0.1219   0.08056   0.07646  -0.0863  0.8235  0.0869  -1.1308   0.0000   0.9745
  -2.500   0.2243   0.07175   0.06751  -0.1073  0.8135  0.0997  -1.1070   0.0000   0.7362
  -1.500   0.4121   0.05722   0.05271  -0.1383  0.7837  0.1326  -0.9392   0.0000   0.5877
  -1.000   0.5545   0.04830   0.04350  -0.1600  0.7798  0.1701  -0.8842   0.0000   0.5391
  -0.500   0.7025   0.03882   0.03372  -0.1799  0.7774  0.1971  -0.9852   0.0000   0.5055
   0.500   1.0708   0.02259   0.01480  -0.2325  0.7540  0.2833  -1.2545   0.0000   0.4647
   1.000   1.1499   0.02204   0.01411  -0.2361  0.7294  0.3551  -1.3473   0.0000   0.4520
   1.500   1.2258   0.02175   0.01361  -0.2392  0.7048  0.4268  -1.4395   0.0000   0.4410
   2.000   1.2936   0.02157   0.01327  -0.2407  0.6812  0.5202  -1.5316   0.0000   0.4311
   2.500   1.3342   0.02117   0.01346  -0.2371  0.6575  1.0000  -1.6004   0.0000   0.4219
   3.000   1.3879   0.02194   0.01376  -0.2363  0.6347  1.0000  -1.6844   0.0000   0.4136
   3.500   1.4405   0.02272   0.01422  -0.2353  0.6132  1.0000  -1.7728   0.0000   0.4059
   4.000   1.4920   0.02356   0.01482  -0.2342  0.5923  1.0000  -1.8656   0.0000   0.3986
   4.500   1.5422   0.02448   0.01553  -0.2328  0.5716  1.0000  -1.9581   0.0000   0.3917
   5.000   1.5902   0.02548   0.01639  -0.2312  0.5513  1.0000  -2.0512   0.0000   0.3852
   5.500   1.6364   0.02653   0.01732  -0.2292  0.5311  1.0000  -2.1474   0.0000   0.3791
   6.000   1.6806   0.02759   0.01832  -0.2269  0.5107  1.0000  -2.2430   0.0000   0.3731
   6.500   1.7235   0.02865   0.01931  -0.2244  0.4903  1.0000  -2.3440   0.0000   0.3673
   7.000   1.7653   0.02972   0.02031  -0.2217  0.4696  1.0000  -2.4449   0.0000   0.3618
   7.500   1.7973   0.03089   0.02153  -0.2173  0.4486  1.0000  -2.5385   0.0000   0.3562
   8.000   1.8257   0.03215   0.02288  -0.2124  0.4277  1.0000  -2.6297   0.0000   0.3506
   8.500   1.8533   0.03350   0.02429  -0.2075  0.4076  1.0000  -2.7196   0.0000   0.3453
   9.000   1.8784   0.03493   0.02579  -0.2022  0.3885  1.0000  -2.8105   0.0000   0.3400
   9.500   1.9018   0.03649   0.02740  -0.1969  0.3705  1.0000  -2.9063   0.0000   0.3348
  10.000   1.9272   0.03821   0.02918  -0.1921  0.3538  1.0000  -3.0077   0.0000   0.3300
  10.500   1.9546   0.04002   0.03102  -0.1879  0.3379  1.0000  -3.1127   0.0000   0.3254
  11.000   1.9831   0.04195   0.03300  -0.1840  0.3230  1.0000  -3.2229   0.0000   0.3210
  11.500   1.9854   0.04488   0.03629  -0.1767  0.3100  1.0000  -3.2980   0.0000   0.3161
  12.000   1.9992   0.04784   0.03948  -0.1714  0.2978  1.0000  -3.3940   0.0000   0.3118
  12.500   2.0358   0.05010   0.04175  -0.1695  0.2858  1.0000  -3.5383   0.0000   0.3082
  13.000   2.0260   0.05425   0.04634  -0.1620  0.2756  1.0000  -3.5989   0.0000   0.3038
  13.500   2.0364   0.05811   0.05044  -0.1576  0.2657  1.0000  -3.7115   0.0000   0.3001
  14.000   2.0567   0.06121   0.05370  -0.1544  0.2555  1.0000  -3.8664   0.0000   0.2966
  14.500   2.0241   0.06841   0.06144  -0.1475  0.2481  1.0000  -3.8894   0.0000   0.2932
  15.000   2.0239   0.07335   0.06665  -0.1438  0.2395  1.0000  -3.9929   0.0000   0.2901
  15.500   1.9813   0.08291   0.07668  -0.1394  0.2328  1.0000  -3.9860   0.0000   0.2882
  16.500   1.7841   0.12210   0.11685  -0.1430  0.2201  1.0000  -3.5936   0.0000   0.2955


