XFLR5 v6.09.06

 Calculated polar for: MIN ponta2016

 1 1 Reynolds number fixed          Mach number fixed         

 xtrf =   1.000 (top)        1.000 (bottom)
 Mach =   0.000     Re =     0.200 e 6     Ncrit =   9.000

  alpha     CL        CD       CDp       Cm    Top Xtr Bot Xtr   Cpmin    Chinge    XCp    
 ------- -------- --------- --------- -------- ------- ------- -------- --------- ---------
  -9.500  -0.1350   0.13673   0.13331  -0.0447  0.9766  0.0267  -1.1271   0.0000  -0.1178
  -9.000  -0.1031   0.13027   0.12685  -0.0513  0.9673  0.0279  -1.1063   0.0000  -0.2953
  -8.500  -0.0757   0.12485   0.12144  -0.0592  0.9570  0.0285  -1.1787   0.0000  -0.5949
  -8.000  -0.0351   0.11714   0.11373  -0.0661  0.9520  0.0291  -1.1320   0.0000  -1.7703
  -7.500  -0.0057   0.11116   0.10776  -0.0697  0.9411  0.0301  -1.0677   0.0000  -12.7047
  -7.000   0.0221   0.10550   0.10212  -0.0741  0.9296  0.0315  -1.0577   0.0000   3.7934
  -6.500   0.0451   0.10043   0.09707  -0.0793  0.9166  0.0332  -1.1381   0.0000   2.0993
  -6.000   0.0574   0.09587   0.09255  -0.0830  0.9013  0.0337  -1.2456   0.0000   1.7615
  -5.500   0.1071   0.08842   0.08509  -0.0877  0.8969  0.0354  -1.0889   0.0000   1.1021
  -5.000   0.1323   0.08303   0.07973  -0.0913  0.8816  0.0378  -1.1063   0.0000   0.9648
  -4.500   0.1676   0.07630   0.07301  -0.0999  0.8657  0.0395  -1.2134   0.0000   0.8639
  -1.500   0.8833   0.00181  -0.00459  -0.2276  0.7660  0.0625  -1.3625   0.0000   0.5078
  -1.000   0.9609   0.00146  -0.00520  -0.2319  0.7324  0.0999  -1.0771   0.0000   0.4906
  -0.500   1.0242   0.00148  -0.00537  -0.2334  0.7006  0.1650  -1.1343   0.0000   0.4762
   0.000   1.0724   0.00162  -0.00535  -0.2318  0.6688  0.2196  -1.1962   0.0000   0.4638
   0.500   1.1242   0.00181  -0.00542  -0.2310  0.6421  0.2675  -1.2690   0.0000   0.4523
   1.000   1.1708   0.00196  -0.00533  -0.2292  0.6163  0.3094  -1.3380   0.0000   0.4417
   1.500   1.2200   0.00217  -0.00521  -0.2280  0.5940  0.3571  -1.4132   0.0000   0.4321
   2.000   1.2700   0.00239  -0.00502  -0.2270  0.5740  0.4218  -1.4911   0.0000   0.4231
   2.500   1.3202   0.00258  -0.00471  -0.2261  0.5554  0.5196  -1.5708   0.0000   0.4149
   3.000   1.3591   0.00264  -0.00423  -0.2228  0.5387  1.0000  -1.6459   0.0000   0.4067
   3.500   1.4063   0.00309  -0.00401  -0.2213  0.5221  1.0000  -1.7342   0.0000   0.3993
   4.000   1.4532   0.00358  -0.00371  -0.2198  0.5063  1.0000  -1.8237   0.0000   0.3924
   4.500   1.4949   0.00407  -0.00331  -0.2173  0.4899  1.0000  -1.9091   0.0000   0.3856
   5.000   1.5311   0.00457  -0.00282  -0.2137  0.4737  1.0000  -1.9930   0.0000   0.3790
   5.500   1.5647   0.00513  -0.00229  -0.2097  0.4571  1.0000  -2.0765   0.0000   0.3726
   6.000   1.5960   0.00575  -0.00166  -0.2054  0.4401  1.0000  -2.1601   0.0000   0.3663
   6.500   1.6247   0.00647  -0.00096  -0.2006  0.4226  1.0000  -2.2450   0.0000   0.3602
   7.000   1.6503   0.00733  -0.00007  -0.1955  0.4044  1.0000  -2.3266   0.0000   0.3543
   7.500   1.6739   0.00840   0.00102  -0.1902  0.3860  1.0000  -2.4104   0.0000   0.3485
   8.000   1.6941   0.00975   0.00241  -0.1846  0.3668  1.0000  -2.4915   0.0000   0.3429
   8.500   1.7125   0.01148   0.00416  -0.1789  0.3477  1.0000  -2.5702   0.0000   0.3374
   9.000   1.7300   0.01365   0.00637  -0.1735  0.3297  1.0000  -2.6484   0.0000   0.3322
   9.500   1.7457   0.01632   0.00908  -0.1682  0.3127  1.0000  -2.7320   0.0000   0.3273
  10.000   1.7610   0.01948   0.01230  -0.1631  0.2974  1.0000  -2.8182   0.0000   0.3225
  10.500   1.7763   0.02312   0.01597  -0.1584  0.2837  1.0000  -2.9042   0.0000   0.3180
  11.000   1.7915   0.02713   0.01999  -0.1540  0.2708  1.0000  -2.9906   0.0000   0.3137
  11.500   1.7971   0.03196   0.02509  -0.1490  0.2596  1.0000  -3.0652   0.0000   0.3095
  12.000   1.8086   0.03675   0.02999  -0.1449  0.2491  1.0000  -3.1581   0.0000   0.3056
  12.500   1.8125   0.04207   0.03546  -0.1405  0.2392  1.0000  -3.2384   0.0000   0.3019
  13.000   1.8113   0.04788   0.04155  -0.1361  0.2301  1.0000  -3.3127   0.0000   0.2983
  13.500   1.8117   0.05297   0.04677  -0.1320  0.2212  1.0000  -3.3991   0.0000   0.2948
  14.000   1.7877   0.05941   0.05365  -0.1270  0.2135  1.0000  -3.4443   0.0000   0.2918
  14.500   1.7885   0.06350   0.05788  -0.1242  0.2054  1.0000  -3.5536   0.0000   0.2890
  15.000   1.7705   0.06967   0.06444  -0.1217  0.1981  1.0000  -3.6104   0.0000   0.2870
  15.500   1.7644   0.07454   0.06951  -0.1201  0.1907  1.0000  -3.6980   0.0000   0.2849
  16.000   2.0543   0.06932   0.06312  -0.1401  0.1852  1.0000  -4.4382   0.0000   0.2841
  16.500   2.0460   0.07574   0.06990  -0.1383  0.1782  1.0000  -4.6757   0.0000   0.2821
  17.000   2.0554   0.08034   0.07459  -0.1370  0.1708  1.0000  -5.0445   0.0000   0.2797


