XFLR5 v6.09.06

 Calculated polar for: MIN ponta2016

 1 1 Reynolds number fixed          Mach number fixed         

 xtrf =   1.000 (top)        1.000 (bottom)
 Mach =   0.080     Re =     0.160 e 6     Ncrit =   9.000

  alpha     CL        CD       CDp       Cm    Top Xtr Bot Xtr   Cpmin    Chinge    XCp    
 ------- -------- --------- --------- -------- ------- ------- -------- --------- ---------
 -10.000  -0.2329   0.15064   0.14700  -0.0210  0.9971  0.0299  -1.2005   0.0000   0.1403
  -9.500  -0.1903   0.14345   0.13978  -0.0304  0.9881  0.0312  -1.1470   0.0000   0.0660
  -9.000  -0.1533   0.13678   0.13310  -0.0387  0.9782  0.0326  -1.1236   0.0000  -0.0327
  -8.500  -0.1240   0.13172   0.12804  -0.0480  0.9669  0.0334  -1.1872   0.0000  -0.1735
  -8.000  -0.0894   0.12402   0.12036  -0.0528  0.9569  0.0340  -1.1277   0.0000  -0.3901
  -7.500  -0.0561   0.11775   0.11409  -0.0578  0.9465  0.0355  -1.0704   0.0000  -0.8568
  -7.000  -0.0248   0.11189   0.10824  -0.0635  0.9354  0.0374  -1.0696   0.0000  -2.4778
  -6.500  -0.0083   0.10801   0.10440  -0.0695  0.9196  0.0389  -1.1926   0.0000  -8.5557
  -6.000   0.0351   0.10009   0.09648  -0.0751  0.9124  0.0400  -1.1225   0.0000   2.4950
  -5.500   0.0587   0.09496   0.09137  -0.0771  0.8977  0.0421  -1.0857   0.0000   1.6240
  -5.000   0.0858   0.08992   0.08635  -0.0853  0.8810  0.0451  -1.1958   0.0000   1.2813
  -4.500   0.1155   0.08324   0.07969  -0.0874  0.8658  0.0465  -1.1584   0.0000   1.0321
  -4.000   0.1535   0.07726   0.07373  -0.0918  0.8503  0.0503  -1.1120   0.0000   0.8646
  -3.500   0.2049   0.07015   0.06660  -0.1020  0.8349  0.0545  -1.1510   0.0000   0.7588
  -3.000   0.2887   0.06174   0.05812  -0.1176  0.8283  0.0636  -1.1201   0.0000   0.6639
  -1.500   0.6927   0.03109   0.02656  -0.1949  0.7988  0.0862  -1.0085   0.0000   0.5320
  -0.500   1.0116   0.01615   0.00895  -0.2391  0.7624  0.1314  -1.1741   0.0000   0.4853
   0.000   1.0903   0.01593   0.00857  -0.2430  0.7293  0.2114  -1.2559   0.0000   0.4710
   0.500   1.1551   0.01615   0.00855  -0.2443  0.6977  0.2716  -1.3347   0.0000   0.4588
   1.000   1.2067   0.01644   0.00872  -0.2430  0.6677  0.3189  -1.4080   0.0000   0.4478
   1.500   1.2616   0.01674   0.00883  -0.2423  0.6415  0.3712  -1.4861   0.0000   0.4377
   2.000   1.3114   0.01707   0.00914  -0.2408  0.6169  0.4385  -1.5642   0.0000   0.4284
   2.500   1.3624   0.01732   0.00950  -0.2395  0.5951  0.5568  -1.6443   0.0000   0.4197
   3.000   1.4069   0.01735   0.00979  -0.2368  0.5756  1.0000  -1.7227   0.0000   0.4114
   3.500   1.4567   0.01812   0.01030  -0.2354  0.5563  1.0000  -1.8111   0.0000   0.4038
   4.000   1.5048   0.01891   0.01089  -0.2337  0.5379  1.0000  -1.9022   0.0000   0.3967
   4.500   1.5521   0.01972   0.01154  -0.2319  0.5205  1.0000  -1.9935   0.0000   0.3899
   5.000   1.5971   0.02051   0.01223  -0.2297  0.5029  1.0000  -2.0851   0.0000   0.3834
   5.500   1.6406   0.02131   0.01293  -0.2272  0.4856  1.0000  -2.1806   0.0000   0.3772
   6.000   1.6810   0.02211   0.01368  -0.2242  0.4678  1.0000  -2.2739   0.0000   0.3712
   6.500   1.7171   0.02293   0.01444  -0.2203  0.4495  1.0000  -2.3691   0.0000   0.3652
   7.000   1.7482   0.02379   0.01529  -0.2156  0.4309  1.0000  -2.4592   0.0000   0.3593
   7.500   1.7749   0.02475   0.01626  -0.2102  0.4118  1.0000  -2.5472   0.0000   0.3535
   8.000   1.8004   0.02586   0.01741  -0.2048  0.3927  1.0000  -2.6371   0.0000   0.3478
   8.500   1.8230   0.02715   0.01874  -0.1990  0.3731  1.0000  -2.7234   0.0000   0.3423
   9.000   1.8451   0.02863   0.02027  -0.1935  0.3539  1.0000  -2.8089   0.0000   0.3370
   9.500   1.8676   0.03032   0.02198  -0.1883  0.3358  1.0000  -2.9024   0.0000   0.3319
  10.000   1.8894   0.03220   0.02389  -0.1834  0.3188  1.0000  -3.0012   0.0000   0.3271
  10.500   1.9138   0.03421   0.02590  -0.1790  0.3034  1.0000  -3.1039   0.0000   0.3226
  11.000   1.9340   0.03645   0.02823  -0.1744  0.2892  1.0000  -3.2002   0.0000   0.3181
  11.500   1.9511   0.03899   0.03096  -0.1696  0.2762  1.0000  -3.2965   0.0000   0.3138
  12.000   1.9737   0.04158   0.03366  -0.1659  0.2647  1.0000  -3.4117   0.0000   0.3098
  12.500   2.0035   0.04395   0.03597  -0.1632  0.2532  1.0000  -3.5432   0.0000   0.3061
  13.000   2.0070   0.04752   0.03993  -0.1578  0.2436  1.0000  -3.6308   0.0000   0.3021
  13.500   2.0295   0.05048   0.04298  -0.1549  0.2340  1.0000  -3.7685   0.0000   0.2986
  14.000   2.0350   0.05441   0.04722  -0.1506  0.2255  1.0000  -3.8877   0.0000   0.2951
  14.500   2.0524   0.05795   0.05091  -0.1478  0.2171  1.0000  -4.0401   0.0000   0.2919
  15.000   2.0494   0.06286   0.05616  -0.1439  0.2091  1.0000  -4.1429   0.0000   0.2888
  15.500   2.0639   0.06684   0.06030  -0.1416  0.2012  1.0000  -4.3147   0.0000   0.2859
  16.000   2.0492   0.07344   0.06732  -0.1386  0.1942  1.0000  -4.4043   0.0000   0.2836
  16.500   2.0676   0.07709   0.07103  -0.1370  0.1863  1.0000  -4.7473   0.0000   0.2809
  17.000   2.0330   0.08651   0.08100  -0.1354  0.1801  1.0000  -4.8508   0.0000   0.2798


