XFLR5 v6.09.06

 Calculated polar for: MIN ponta2016

 1 1 Reynolds number fixed          Mach number fixed         

 xtrf =   1.000 (top)        1.000 (bottom)
 Mach =   0.080     Re =     0.440 e 6     Ncrit =   9.000

  alpha     CL        CD       CDp       Cm    Top Xtr Bot Xtr   Cpmin    Chinge    XCp    
 ------- -------- --------- --------- -------- ------- ------- -------- --------- ---------
 -10.000   0.1124   0.09967   0.09724  -0.0950  0.9415  0.0170  -0.9309   0.0000   1.1369
  -9.500   0.0083   0.11856   0.11598  -0.0820  0.9554  0.0166  -1.1142   0.0000  10.8110
  -9.000   0.0458   0.11163   0.10904  -0.0909  0.9527  0.0169  -1.1715   0.0000   2.3656
  -8.500   0.0615   0.10652   0.10395  -0.0944  0.9434  0.0170  -1.2862   0.0000   1.8776
  -8.000   0.1016   0.09935   0.09678  -0.0995  0.9409  0.0173  -1.1701   0.0000   1.2837
  -7.000   0.2542   0.06075   0.05836  -0.1173  0.9122  0.0204  -0.9875   0.0000   0.7264
  -6.000   0.2123   0.07720   0.07469  -0.1174  0.9109  0.0204  -1.2654   0.0000   0.8238
  -5.500   0.2339   0.07139   0.06891  -0.1190  0.8981  0.0207  -1.2755   0.0000   0.7758
  -3.000   0.5224   0.03898   0.03616  -0.1699  0.8125  0.0321  -1.2305   0.0000   0.5794
  -2.500   0.8136   0.01180   0.00643  -0.2424  0.7973  0.0223  -2.1175   0.0000   0.5505
  -2.000   0.8953   0.01087   0.00500  -0.2474  0.7581  0.0266  -1.8728   0.0000   0.5279
  -1.500   0.9534   0.01068   0.00451  -0.2475  0.7206  0.0386  -1.6185   0.0000   0.5101
  -1.000   1.0010   0.01062   0.00428  -0.2454  0.6821  0.0597  -1.3365   0.0000   0.4948
  -0.500   1.0439   0.01074   0.00424  -0.2424  0.6404  0.0983  -1.2024   0.0000   0.4809
   0.000   1.0872   0.01110   0.00446  -0.2395  0.6043  0.1551  -1.2606   0.0000   0.4682
   0.500   1.1331   0.01151   0.00472  -0.2372  0.5756  0.1926  -1.3252   0.0000   0.4564
   1.000   1.1810   0.01192   0.00500  -0.2353  0.5538  0.2267  -1.3963   0.0000   0.4455
   1.500   1.2299   0.01227   0.00530  -0.2338  0.5353  0.2645  -1.4697   0.0000   0.4354
   2.000   1.2788   0.01261   0.00564  -0.2322  0.5185  0.3093  -1.5478   0.0000   0.4261
   2.500   1.3272   0.01296   0.00603  -0.2306  0.5028  0.3717  -1.6265   0.0000   0.4174
   3.000   1.3753   0.01336   0.00646  -0.2290  0.4885  0.4461  -1.7072   0.0000   0.4094
   3.500   1.4243   0.01345   0.00699  -0.2277  0.4740  0.6677  -1.7957   0.0000   0.4019
   4.000   1.4651   0.01354   0.00733  -0.2244  0.4606  1.0000  -1.8803   0.0000   0.3944
   4.500   1.5094   0.01411   0.00778  -0.2221  0.4467  1.0000  -1.9693   0.0000   0.3875
   5.500   1.5945   0.01530   0.00883  -0.2169  0.4162  1.0000  -2.1518   0.0000   0.3746
   6.000   1.6353   0.01596   0.00946  -0.2141  0.4002  1.0000  -2.2458   0.0000   0.3686
   6.500   1.6751   0.01669   0.01016  -0.2112  0.3837  1.0000  -2.3435   0.0000   0.3628
   7.000   1.7124   0.01754   0.01097  -0.2079  0.3652  1.0000  -2.4416   0.0000   0.3572
   7.500   1.7474   0.01854   0.01190  -0.2043  0.3452  1.0000  -2.5391   0.0000   0.3518
   8.000   1.7800   0.01971   0.01301  -0.2005  0.3246  1.0000  -2.6395   0.0000   0.3466
   8.500   1.8104   0.02106   0.01429  -0.1965  0.3038  1.0000  -2.7375   0.0000   0.3415
   9.000   1.8399   0.02250   0.01572  -0.1925  0.2848  1.0000  -2.8349   0.0000   0.3366
   9.500   1.8670   0.02416   0.01735  -0.1883  0.2678  1.0000  -2.9348   0.0000   0.3318
  10.000   1.8914   0.02606   0.01923  -0.1840  0.2527  1.0000  -3.0399   0.0000   0.3272
  10.500   1.9169   0.02793   0.02116  -0.1800  0.2404  1.0000  -3.1472   0.0000   0.3227
  11.000   1.9404   0.03001   0.02333  -0.1759  0.2295  1.0000  -3.2519   0.0000   0.3184
  11.500   1.9576   0.03267   0.02601  -0.1715  0.2190  1.0000  -3.3495   0.0000   0.3142
  12.000   1.9802   0.03501   0.02849  -0.1679  0.2100  1.0000  -3.4691   0.0000   0.3103
  12.500   1.9947   0.03817   0.03172  -0.1639  0.2019  1.0000  -3.5743   0.0000   0.3065
  13.000   2.0137   0.04107   0.03479  -0.1606  0.1945  1.0000  -3.6944   0.0000   0.3029
  13.500   2.0222   0.04511   0.03891  -0.1569  0.1866  1.0000  -3.8009   0.0000   0.2995
  14.000   2.0385   0.04860   0.04260  -0.1542  0.1799  1.0000  -3.9496   0.0000   0.2964
  14.500   2.0429   0.05351   0.04759  -0.1513  0.1730  1.0000  -4.0732   0.0000   0.2935
  15.000   2.0545   0.05784   0.05216  -0.1492  0.1669  1.0000  -4.2148   0.0000   0.2907
  15.500   2.0571   0.06340   0.05785  -0.1472  0.1602  1.0000  -4.3535   0.0000   0.2883
  16.000   2.0601   0.06914   0.06379  -0.1457  0.1540  1.0000  -4.4995   0.0000   0.2862
  16.500   2.0613   0.07536   0.07021  -0.1448  0.1476  1.0000  -4.7934   0.0000   0.2843
  17.000   2.0560   0.08258   0.07757  -0.1442  0.1417  1.0000  -5.0813   0.0000   0.2827


