XFLR5 v6.09.06

 Calculated polar for: MIN ponta2016

 1 1 Reynolds number fixed          Mach number fixed         

 xtrf =   1.000 (top)        1.000 (bottom)
 Mach =   0.080     Re =     0.100 e 6     Ncrit =   9.000

  alpha     CL        CD       CDp       Cm    Top Xtr Bot Xtr   Cpmin    Chinge    XCp    
 ------- -------- --------- --------- -------- ------- ------- -------- --------- ---------
 -10.000  -0.2418   0.15462   0.15001  -0.0202  1.0000  0.0450  -1.1925   0.0000   0.1482
  -9.500  -0.2522   0.15379   0.14930  -0.0194  1.0000  0.0453  -1.2579   0.0000   0.1566
  -9.000  -0.2489   0.14830   0.14393  -0.0169  1.0000  0.0459  -1.2085   0.0000   0.1663
  -8.500  -0.2481   0.14421   0.13994  -0.0142  1.0000  0.0470  -1.1520   0.0000   0.1777
  -8.000  -0.2430   0.14061   0.13643  -0.0142  0.9981  0.0485  -1.1210   0.0000   0.1770
  -7.500  -0.1931   0.13412   0.12991  -0.0266  0.9833  0.0517  -1.1248   0.0000   0.0932
  -7.000  -0.1740   0.13278   0.12859  -0.0382  0.9646  0.0528  -1.2742   0.0000   0.0095
  -6.500  -0.1194   0.12135   0.11716  -0.0421  0.9529  0.0554  -1.1154   0.0000  -0.1320
  -6.000  -0.0929   0.11614   0.11197  -0.0468  0.9348  0.0586  -1.1087   0.0000  -0.2906
  -5.500  -0.0814   0.11423   0.11010  -0.0544  0.9133  0.0613  -1.2304   0.0000  -0.4585
  -5.000  -0.0436   0.10570   0.10159  -0.0571  0.8982  0.0636  -1.1581   0.0000  -1.1275
  -4.500  -0.0038   0.09978   0.09568  -0.0640  0.8811  0.0700  -1.1376   0.0000  -17.5208
  -4.000   0.0329   0.09329   0.08921  -0.0710  0.8621  0.0743  -1.1509   0.0000   2.4885
  -3.500   0.0661   0.08799   0.08391  -0.0753  0.8395  0.0812  -1.1239   0.0000   1.4228
  -2.500   0.2148   0.07310   0.06888  -0.1065  0.8064  0.0993  -1.1316   0.0000   0.7540
  -1.000   0.6497   0.03959   0.03418  -0.1847  0.7831  0.0964  -1.1025   0.0000   0.5346
  -0.500   0.8556   0.02759   0.02033  -0.2161  0.7825  0.1107  -1.2382   0.0000   0.5018
   0.000   0.9650   0.02443   0.01680  -0.2244  0.7688  0.1748  -1.1535   0.0000   0.4809
   0.500   1.0689   0.02281   0.01506  -0.2322  0.7504  0.2775  -1.2559   0.0000   0.4647
   1.000   1.1543   0.02212   0.01418  -0.2368  0.7269  0.3538  -1.3541   0.0000   0.4519
   1.500   1.2324   0.02181   0.01363  -0.2403  0.7028  0.4262  -1.4485   0.0000   0.4408
   2.000   1.2918   0.02183   0.01357  -0.2402  0.6783  0.5122  -1.5333   0.0000   0.4310
   2.500   1.3345   0.02135   0.01370  -0.2369  0.6549  1.0000  -1.6044   0.0000   0.4217
   3.000   1.3911   0.02209   0.01392  -0.2366  0.6324  1.0000  -1.6912   0.0000   0.4134
   3.500   1.4450   0.02286   0.01436  -0.2358  0.6111  1.0000  -1.7813   0.0000   0.4056
   4.000   1.4974   0.02371   0.01495  -0.2347  0.5903  1.0000  -1.8755   0.0000   0.3984
   4.500   1.5484   0.02463   0.01565  -0.2335  0.5696  1.0000  -1.9695   0.0000   0.3915
   5.000   1.5972   0.02565   0.01652  -0.2319  0.5493  1.0000  -2.0638   0.0000   0.3850
   5.500   1.6440   0.02672   0.01746  -0.2299  0.5290  1.0000  -2.1614   0.0000   0.3788
   6.000   1.6892   0.02779   0.01846  -0.2277  0.5086  1.0000  -2.2587   0.0000   0.3729
   6.500   1.7300   0.02891   0.01953  -0.2248  0.4880  1.0000  -2.3576   0.0000   0.3671
   7.000   1.7634   0.03008   0.02077  -0.2205  0.4669  1.0000  -2.4482   0.0000   0.3613
   7.500   1.7948   0.03129   0.02202  -0.2160  0.4458  1.0000  -2.5409   0.0000   0.3556
   8.000   1.8242   0.03255   0.02334  -0.2112  0.4249  1.0000  -2.6340   0.0000   0.3501
   8.500   1.8521   0.03391   0.02474  -0.2063  0.4049  1.0000  -2.7249   0.0000   0.3447
   9.000   1.8769   0.03538   0.02628  -0.2009  0.3861  1.0000  -2.8152   0.0000   0.3394
   9.500   1.8998   0.03700   0.02796  -0.1954  0.3682  1.0000  -2.9100   0.0000   0.3342
  10.000   1.9236   0.03883   0.02988  -0.1904  0.3518  1.0000  -3.0093   0.0000   0.3293
  10.500   1.9489   0.04077   0.03187  -0.1859  0.3362  1.0000  -3.1112   0.0000   0.3246
  11.000   1.9824   0.04268   0.03378  -0.1828  0.3215  1.0000  -3.2292   0.0000   0.3204
  11.500   1.9886   0.04549   0.03689  -0.1760  0.3084  1.0000  -3.3115   0.0000   0.3156
  12.000   1.9948   0.04885   0.04055  -0.1698  0.2965  1.0000  -3.3940   0.0000   0.3112
  12.500   2.0258   0.05140   0.04318  -0.1671  0.2849  1.0000  -3.5269   0.0000   0.3074
  13.000   2.0253   0.05526   0.04737  -0.1609  0.2744  1.0000  -3.6046   0.0000   0.3033
  13.500   2.0237   0.05994   0.05239  -0.1555  0.2650  1.0000  -3.6909   0.0000   0.2995
  14.000   2.0726   0.06175   0.05415  -0.1551  0.2536  1.0000  -3.9104   0.0000   0.2963
  14.500   2.0030   0.07132   0.06448  -0.1455  0.2477  1.0000  -3.8434   0.0000   0.2929
  15.000   2.0109   0.07583   0.06921  -0.1426  0.2389  1.0000  -3.9670   0.0000   0.2900
  15.500   1.9399   0.08874   0.08270  -0.1385  0.2331  1.0000  -3.8776   0.0000   0.2892
  16.500   1.3555   0.23540   0.23004  -0.2101  0.2524  1.0000  -1.7665   0.0000   0.3756
  17.000   1.3534   0.23995   0.23467  -0.2152  0.2395  1.0000  -1.7489   0.0000   0.3785


