XFLR5 v6.09.06

 Calculated polar for: MIN ponta2016

 1 1 Reynolds number fixed          Mach number fixed         

 xtrf =   1.000 (top)        1.000 (bottom)
 Mach =   0.000     Re =     0.180 e 6     Ncrit =   9.000

  alpha     CL        CD       CDp       Cm    Top Xtr Bot Xtr   Cpmin    Chinge    XCp    
 ------- -------- --------- --------- -------- ------- ------- -------- --------- ---------
 -10.000  -0.1988   0.14696   0.14343  -0.0305  0.9898  0.0283  -1.2102   0.0000   0.0724
  -9.500  -0.1666   0.14148   0.13794  -0.0409  0.9798  0.0286  -1.2861   0.0000  -0.0243
  -9.000  -0.1263   0.13298   0.12945  -0.0463  0.9729  0.0292  -1.1483   0.0000  -0.1545
  -8.500  -0.0902   0.12641   0.12287  -0.0528  0.9645  0.0303  -1.0674   0.0000  -0.3878
  -8.000  -0.0597   0.12031   0.11678  -0.0584  0.9539  0.0317  -1.0575   0.0000  -0.8055
  -7.500  -0.0322   0.11479   0.11127  -0.0649  0.9423  0.0332  -1.1238   0.0000  -1.9015
  -7.000  -0.0104   0.10965   0.10616  -0.0712  0.9295  0.0336  -1.2206   0.0000  -7.0278
  -6.000   0.0648   0.09644   0.09296  -0.0805  0.9120  0.0372  -1.0727   0.0000   1.5516
  -5.500   0.0643   0.09332   0.08989  -0.0813  0.8899  0.0388  -1.1928   0.0000   1.5685
  -4.500   0.1395   0.08006   0.07666  -0.0906  0.8663  0.0428  -1.1036   0.0000   0.9197
  -4.000   0.1874   0.07283   0.06941  -0.1031  0.8503  0.0460  -1.2267   0.0000   0.8137
  -3.500   0.2276   0.06710   0.06368  -0.1051  0.8368  0.0496  -1.1163   0.0000   0.7215
  -3.000   0.3121   0.05874   0.05526  -0.1207  0.8312  0.0584  -1.0860   0.0000   0.6428
  -2.500   0.3916   0.05127   0.04770  -0.1346  0.8170  0.0656  -1.0508   0.0000   0.5977
  -1.000   0.9262   0.01592   0.00912  -0.2332  0.7845  0.0763  -1.3722   0.0000   0.5016
  -0.500   1.0277   0.01482   0.00778  -0.2417  0.7536  0.1359  -1.1834   0.0000   0.4841
   0.000   1.1020   0.01488   0.00757  -0.2448  0.7196  0.2122  -1.2628   0.0000   0.4703
   0.500   1.1535   0.01522   0.00774  -0.2435  0.6852  0.2636  -1.3317   0.0000   0.4584
   1.000   1.2048   0.01552   0.00787  -0.2422  0.6557  0.3093  -1.4048   0.0000   0.4474
   1.500   1.2551   0.01584   0.00807  -0.2408  0.6286  0.3577  -1.4790   0.0000   0.4374
   2.000   1.3086   0.01623   0.00834  -0.2401  0.6056  0.4249  -1.5603   0.0000   0.4282
   2.500   1.3599   0.01654   0.00876  -0.2390  0.5844  0.5327  -1.6406   0.0000   0.4197
   3.000   1.4042   0.01652   0.00907  -0.2364  0.5655  1.0000  -1.7187   0.0000   0.4114
   3.500   1.4538   0.01726   0.00953  -0.2350  0.5467  1.0000  -1.8071   0.0000   0.4038
   4.000   1.5002   0.01796   0.01007  -0.2330  0.5290  1.0000  -1.8962   0.0000   0.3967
   4.500   1.5440   0.01866   0.01069  -0.2306  0.5120  1.0000  -1.9837   0.0000   0.3898
   5.000   1.5866   0.01938   0.01135  -0.2280  0.4949  1.0000  -2.0722   0.0000   0.3833
   5.500   1.6280   0.02013   0.01203  -0.2252  0.4781  1.0000  -2.1649   0.0000   0.3770
   6.000   1.6652   0.02087   0.01275  -0.2216  0.4609  1.0000  -2.2541   0.0000   0.3709
   6.500   1.6995   0.02165   0.01349  -0.2175  0.4434  1.0000  -2.3462   0.0000   0.3649
   7.000   1.7307   0.02251   0.01435  -0.2129  0.4252  1.0000  -2.4359   0.0000   0.3590
   7.500   1.7594   0.02346   0.01530  -0.2080  0.4066  1.0000  -2.5253   0.0000   0.3533
   8.000   1.7863   0.02456   0.01643  -0.2030  0.3875  1.0000  -2.6166   0.0000   0.3477
   8.500   1.8102   0.02583   0.01771  -0.1976  0.3678  1.0000  -2.7044   0.0000   0.3423
   9.000   1.8335   0.02730   0.01920  -0.1924  0.3486  1.0000  -2.7913   0.0000   0.3371
   9.500   1.8560   0.02897   0.02089  -0.1874  0.3302  1.0000  -2.8838   0.0000   0.3320
  10.000   1.8776   0.03085   0.02280  -0.1825  0.3130  1.0000  -2.9818   0.0000   0.3272
  10.500   1.9000   0.03291   0.02489  -0.1780  0.2976  1.0000  -3.0807   0.0000   0.3227
  11.000   1.9219   0.03514   0.02715  -0.1737  0.2836  1.0000  -3.1793   0.0000   0.3183
  11.500   1.9463   0.03743   0.02940  -0.1700  0.2706  1.0000  -3.2885   0.0000   0.3142
  12.000   1.9610   0.04013   0.03238  -0.1653  0.2592  1.0000  -3.3891   0.0000   0.3101
  12.500   1.9813   0.04287   0.03521  -0.1617  0.2485  1.0000  -3.5007   0.0000   0.3062
  13.000   2.0003   0.04569   0.03811  -0.1581  0.2384  1.0000  -3.6194   0.0000   0.3025
  13.500   2.0119   0.04915   0.04186  -0.1542  0.2292  1.0000  -3.7315   0.0000   0.2989
  14.000   2.0395   0.05180   0.04448  -0.1520  0.2201  1.0000  -3.9028   0.0000   0.2956
  14.500   2.0363   0.05649   0.04961  -0.1476  0.2125  1.0000  -4.0038   0.0000   0.2923
  15.000   2.0607   0.05941   0.05250  -0.1456  0.2038  1.0000  -4.1783   0.0000   0.2892
  15.500   2.0496   0.06532   0.05891  -0.1419  0.1971  1.0000  -4.2786   0.0000   0.2865
  16.000   2.0595   0.06953   0.06324  -0.1398  0.1896  1.0000  -4.4456   0.0000   0.2838
  16.500   2.0524   0.07584   0.06992  -0.1377  0.1827  1.0000  -4.6983   0.0000   0.2817
  17.000   2.0495   0.08164   0.07593  -0.1363  0.1754  1.0000  -4.9933   0.0000   0.2797


