XFLR5 v6.09.06

 Calculated polar for: MIN ponta2016

 1 1 Reynolds number fixed          Mach number fixed         

 xtrf =   1.000 (top)        1.000 (bottom)
 Mach =   0.000     Re =     0.440 e 6     Ncrit =   9.000

  alpha     CL        CD       CDp       Cm    Top Xtr Bot Xtr   Cpmin    Chinge    XCp    
 ------- -------- --------- --------- -------- ------- ------- -------- --------- ---------
 -10.000  -0.0141   0.12426   0.12167  -0.0788  0.9640  0.0161  -1.1239   0.0000  -5.7692
  -9.500   0.0059   0.11854   0.11596  -0.0814  0.9556  0.0166  -1.1138   0.0000  14.9900
  -9.000   0.0432   0.11160   0.10901  -0.0902  0.9528  0.0169  -1.1667   0.0000   2.4762
  -8.500   0.0593   0.10646   0.10388  -0.0938  0.9437  0.0170  -1.2834   0.0000   1.9294
  -7.500   0.1214   0.09438   0.09184  -0.1005  0.9323  0.0177  -1.1024   0.0000   1.1214
  -7.000   0.1586   0.08845   0.08591  -0.1066  0.9280  0.0184  -1.0592   0.0000   0.9537
  -6.000   0.2051   0.07759   0.07509  -0.1150  0.9096  0.0204  -1.2409   0.0000   0.8321
  -5.500   0.2311   0.07127   0.06879  -0.1188  0.8983  0.0207  -1.2914   0.0000   0.7814
  -4.500   0.2929   0.06139   0.05892  -0.1239  0.8713  0.0228  -1.1264   0.0000   0.6839
  -3.500   0.4098   0.04788   0.04528  -0.1460  0.8348  0.0270  -1.1876   0.0000   0.6125
  -3.000   0.5190   0.03888   0.03607  -0.1693  0.8140  0.0320  -1.2362   0.0000   0.5805
  -2.000   0.8923   0.01079   0.00494  -0.2466  0.7612  0.0269  -1.8679   0.0000   0.5280
  -1.500   0.9519   0.01056   0.00442  -0.2471  0.7238  0.0398  -1.6103   0.0000   0.5102
  -1.000   1.0001   0.01055   0.00423  -0.2452  0.6856  0.0610  -1.3225   0.0000   0.4949
  -0.500   1.0430   0.01066   0.00419  -0.2423  0.6439  0.1027  -1.1987   0.0000   0.4810
   0.000   1.0855   0.01102   0.00441  -0.2393  0.6069  0.1574  -1.2562   0.0000   0.4683
   0.500   1.1310   0.01144   0.00466  -0.2369  0.5778  0.1942  -1.3203   0.0000   0.4565
   1.000   1.1786   0.01185   0.00493  -0.2350  0.5556  0.2279  -1.3909   0.0000   0.4456
   1.500   1.2273   0.01220   0.00524  -0.2335  0.5370  0.2661  -1.4638   0.0000   0.4356
   2.000   1.2760   0.01254   0.00558  -0.2319  0.5201  0.3114  -1.5415   0.0000   0.4263
   2.500   1.3241   0.01290   0.00596  -0.2303  0.5043  0.3747  -1.6195   0.0000   0.4177
   3.000   1.3720   0.01326   0.00638  -0.2287  0.4899  0.4496  -1.6998   0.0000   0.4096
   3.500   1.4212   0.01326   0.00693  -0.2275  0.4755  0.7279  -1.7881   0.0000   0.4022
   4.000   1.4617   0.01345   0.00724  -0.2243  0.4621  1.0000  -1.8719   0.0000   0.3946
   4.500   1.5056   0.01403   0.00768  -0.2219  0.4482  1.0000  -1.9601   0.0000   0.3877
   5.000   1.5484   0.01460   0.00817  -0.2194  0.4332  1.0000  -2.0481   0.0000   0.3812
   5.500   1.5911   0.01516   0.00870  -0.2169  0.4179  1.0000  -2.1421   0.0000   0.3749
   6.000   1.6318   0.01581   0.00932  -0.2142  0.4021  1.0000  -2.2355   0.0000   0.3689
   6.500   1.6714   0.01654   0.01000  -0.2113  0.3859  1.0000  -2.3326   0.0000   0.3632
   7.000   1.7090   0.01736   0.01078  -0.2081  0.3676  1.0000  -2.4305   0.0000   0.3576
   7.500   1.7442   0.01832   0.01169  -0.2047  0.3478  1.0000  -2.5278   0.0000   0.3523
   8.000   1.7776   0.01942   0.01274  -0.2010  0.3273  1.0000  -2.6285   0.0000   0.3470
   8.500   1.8073   0.02077   0.01400  -0.1969  0.3063  1.0000  -2.7251   0.0000   0.3419
   9.000   1.8362   0.02222   0.01542  -0.1929  0.2870  1.0000  -2.8212   0.0000   0.3370
   9.500   1.8635   0.02384   0.01700  -0.1888  0.2697  1.0000  -2.9214   0.0000   0.3323
  10.000   1.8890   0.02561   0.01878  -0.1846  0.2544  1.0000  -3.0274   0.0000   0.3277
  10.500   1.9152   0.02739   0.02062  -0.1807  0.2421  1.0000  -3.1351   0.0000   0.3232
  11.000   1.9382   0.02947   0.02276  -0.1766  0.2310  1.0000  -3.2383   0.0000   0.3189
  11.500   1.9551   0.03209   0.02539  -0.1721  0.2200  1.0000  -3.3357   0.0000   0.3147
  12.000   1.9791   0.03425   0.02771  -0.1687  0.2112  1.0000  -3.4570   0.0000   0.3108
  12.500   1.9923   0.03744   0.03094  -0.1645  0.2028  1.0000  -3.5592   0.0000   0.3070
  13.000   2.0130   0.04011   0.03381  -0.1613  0.1956  1.0000  -3.6824   0.0000   0.3034
  13.500   2.0208   0.04413   0.03786  -0.1575  0.1873  1.0000  -3.7881   0.0000   0.3000
  14.000   2.0387   0.04735   0.04131  -0.1549  0.1809  1.0000  -3.9416   0.0000   0.2968
  14.500   2.0448   0.05197   0.04603  -0.1519  0.1741  1.0000  -4.0686   0.0000   0.2938
  15.000   2.0552   0.05632   0.05059  -0.1497  0.1678  1.0000  -4.2063   0.0000   0.2910
  15.500   2.0597   0.06154   0.05596  -0.1476  0.1611  1.0000  -4.3531   0.0000   0.2886
  16.000   2.0614   0.06732   0.06191  -0.1460  0.1548  1.0000  -4.5042   0.0000   0.2863
  16.500   2.0646   0.07316   0.06796  -0.1450  0.1485  1.0000  -4.8323   0.0000   0.2843
  17.000   2.0581   0.08042   0.07532  -0.1442  0.1423  1.0000  -5.1113   0.0000   0.2827


