XFLR5 v6.09.06

 Calculated polar for: MIN ponta2016

 1 1 Reynolds number fixed          Mach number fixed         

 xtrf =   1.000 (top)        1.000 (bottom)
 Mach =   0.080     Re =     0.460 e 6     Ncrit =   9.000

  alpha     CL        CD       CDp       Cm    Top Xtr Bot Xtr   Cpmin    Chinge    XCp    
 ------- -------- --------- --------- -------- ------- ------- -------- --------- ---------
 -10.000  -0.0145   0.12406   0.12152  -0.0784  0.9600  0.0154  -1.1269   0.0000  -5.5881
  -9.500   0.0162   0.11768   0.11514  -0.0839  0.9551  0.0159  -1.0885   0.0000   5.8235
  -9.000   0.0550   0.11071   0.10816  -0.0917  0.9528  0.0166  -1.0652   0.0000   2.0289
  -8.500   0.0724   0.10541   0.10288  -0.0947  0.9439  0.0169  -1.1692   0.0000   1.6383
  -8.000   0.1061   0.09896   0.09643  -0.1039  0.9404  0.0170  -1.3158   0.0000   1.2829
  -7.000   0.1675   0.08748   0.08499  -0.1090  0.9278  0.0179  -1.0863   0.0000   0.9311
  -6.000   0.2262   0.07655   0.07409  -0.1172  0.9127  0.0198  -1.0857   0.0000   0.7879
  -5.500   0.2425   0.07042   0.06797  -0.1232  0.8979  0.0205  -1.3651   0.0000   0.7746
  -5.000   0.2660   0.06558   0.06315  -0.1221  0.8847  0.0209  -1.2280   0.0000   0.7229
  -4.000   0.3654   0.05157   0.04906  -0.1433  0.8515  0.0245  -1.4253   0.0000   0.6504
  -2.500   0.8219   0.01140   0.00600  -0.2441  0.7922  0.0218  -2.1316   0.0000   0.5495
  -2.000   0.8963   0.01067   0.00483  -0.2475  0.7522  0.0259  -1.8845   0.0000   0.5277
  -1.500   0.9530   0.01050   0.00439  -0.2473  0.7154  0.0376  -1.6273   0.0000   0.5101
  -1.000   0.9998   0.01048   0.00418  -0.2451  0.6764  0.0582  -1.3445   0.0000   0.4948
  -0.500   1.0425   0.01062   0.00416  -0.2421  0.6342  0.0962  -1.2016   0.0000   0.4809
   0.000   1.0864   0.01098   0.00437  -0.2393  0.5989  0.1525  -1.2601   0.0000   0.4681
   0.500   1.1320   0.01143   0.00465  -0.2369  0.5710  0.1899  -1.3245   0.0000   0.4563
   1.000   1.1802   0.01181   0.00493  -0.2352  0.5497  0.2240  -1.3959   0.0000   0.4454
   1.500   1.2293   0.01215   0.00523  -0.2336  0.5317  0.2611  -1.4693   0.0000   0.4354
   2.000   1.2781   0.01248   0.00555  -0.2320  0.5149  0.3055  -1.5475   0.0000   0.4261
   2.500   1.3268   0.01281   0.00593  -0.2304  0.4996  0.3669  -1.6264   0.0000   0.4174
   3.000   1.3751   0.01318   0.00635  -0.2289  0.4858  0.4400  -1.7073   0.0000   0.4093
   3.500   1.4231   0.01342   0.00687  -0.2273  0.4710  0.6018  -1.7949   0.0000   0.4018
   4.000   1.4650   0.01338   0.00723  -0.2244  0.4576  1.0000  -1.8805   0.0000   0.3943
   4.500   1.5097   0.01392   0.00767  -0.2221  0.4438  1.0000  -1.9700   0.0000   0.3875
   5.000   1.5527   0.01452   0.00818  -0.2196  0.4290  1.0000  -2.0587   0.0000   0.3809
   5.500   1.5943   0.01517   0.00874  -0.2168  0.4133  1.0000  -2.1520   0.0000   0.3746
   6.000   1.6356   0.01580   0.00936  -0.2141  0.3974  1.0000  -2.2467   0.0000   0.3686
   6.500   1.6758   0.01652   0.01004  -0.2113  0.3808  1.0000  -2.3449   0.0000   0.3628
   7.000   1.7132   0.01738   0.01085  -0.2080  0.3621  1.0000  -2.4431   0.0000   0.3573
   7.500   1.7483   0.01838   0.01178  -0.2045  0.3421  1.0000  -2.5409   0.0000   0.3519
   8.000   1.7814   0.01953   0.01288  -0.2008  0.3215  1.0000  -2.6419   0.0000   0.3466
   8.500   1.8135   0.02079   0.01409  -0.1970  0.3006  1.0000  -2.7423   0.0000   0.3416
   9.000   1.8430   0.02224   0.01551  -0.1930  0.2817  1.0000  -2.8398   0.0000   0.3367
   9.500   1.8705   0.02386   0.01712  -0.1889  0.2648  1.0000  -2.9410   0.0000   0.3319
  10.000   1.8960   0.02568   0.01893  -0.1846  0.2503  1.0000  -3.0477   0.0000   0.3273
  10.500   1.9188   0.02773   0.02099  -0.1803  0.2378  1.0000  -3.1510   0.0000   0.3228
  11.000   1.9440   0.02968   0.02304  -0.1765  0.2270  1.0000  -3.2587   0.0000   0.3185
  11.500   1.9637   0.03213   0.02555  -0.1722  0.2170  1.0000  -3.3612   0.0000   0.3144
  12.000   1.9835   0.03468   0.02818  -0.1684  0.2078  1.0000  -3.4762   0.0000   0.3104
  12.500   2.0011   0.03756   0.03118  -0.1646  0.2001  1.0000  -3.5871   0.0000   0.3066
  13.000   2.0176   0.04067   0.03441  -0.1610  0.1925  1.0000  -3.7033   0.0000   0.3030
  13.500   2.0294   0.04437   0.03824  -0.1576  0.1850  1.0000  -3.8175   0.0000   0.2996
  14.000   2.0432   0.04808   0.04211  -0.1547  0.1781  1.0000  -3.9624   0.0000   0.2964
  14.500   2.0478   0.05296   0.04709  -0.1517  0.1713  1.0000  -4.0864   0.0000   0.2935
  15.000   2.0603   0.05718   0.05154  -0.1496  0.1651  1.0000  -4.2311   0.0000   0.2907
  15.500   2.0595   0.06314   0.05758  -0.1475  0.1582  1.0000  -4.3616   0.0000   0.2884
  16.000   2.0667   0.06837   0.06307  -0.1461  0.1524  1.0000  -4.5212   0.0000   0.2861
  16.500   2.0649   0.07497   0.06982  -0.1451  0.1460  1.0000  -4.8162   0.0000   0.2843


