XFLR5 v6.09.06

 Calculated polar for: MIN ponta2016

 1 1 Reynolds number fixed          Mach number fixed         

 xtrf =   1.000 (top)        1.000 (bottom)
 Mach =   0.080     Re =     0.320 e 6     Ncrit =   9.000

  alpha     CL        CD       CDp       Cm    Top Xtr Bot Xtr   Cpmin    Chinge    XCp    
 ------- -------- --------- --------- -------- ------- ------- -------- --------- ---------
 -10.000  -0.0771   0.13213   0.12923  -0.0616  0.9668  0.0193  -1.1382   0.0000  -0.6235
  -9.500  -0.0410   0.12520   0.12229  -0.0691  0.9620  0.0201  -1.1241   0.0000  -1.5737
  -9.000  -0.0141   0.11916   0.11625  -0.0757  0.9541  0.0204  -1.1796   0.0000  -5.5156
  -8.000   0.1637   0.08142   0.07872  -0.0958  0.9164  0.0232  -0.7917   0.0000   0.8584
  -7.500   0.1889   0.07436   0.07165  -0.1025  0.9128  0.0242  -0.9185   0.0000   0.8124
  -7.000   0.1144   0.09438   0.09151  -0.0955  0.9275  0.0230  -1.0455   0.0000   1.1272
  -6.500   0.1339   0.08922   0.08638  -0.0992  0.9150  0.0241  -1.1492   0.0000   1.0244
  -5.500   0.1919   0.07779   0.07499  -0.1064  0.8973  0.0254  -1.1052   0.0000   0.8242
  -5.000   0.2177   0.07248   0.06970  -0.1089  0.8831  0.0268  -1.0886   0.0000   0.7662
  -4.500   0.2597   0.06480   0.06200  -0.1220  0.8674  0.0288  -1.3476   0.0000   0.7317
  -3.000   0.4650   0.04274   0.03973  -0.1589  0.8248  0.0395  -1.3247   0.0000   0.5962
  -2.500   0.5637   0.03624   0.03306  -0.1748  0.8062  0.0472  -1.1385   0.0000   0.5630
  -2.000   0.7667   0.02190   0.01793  -0.2189  0.7865  0.0564  -1.1597   0.0000   0.5369
  -1.500   0.9393   0.01195   0.00566  -0.2452  0.7592  0.0442  -1.5868   0.0000   0.5116
  -1.000   1.0046   0.01171   0.00516  -0.2468  0.7208  0.0708  -1.2921   0.0000   0.4953
  -0.500   1.0556   0.01169   0.00503  -0.2454  0.6819  0.1197  -1.2094   0.0000   0.4812
   0.000   1.0990   0.01203   0.00519  -0.2424  0.6440  0.1751  -1.2680   0.0000   0.4685
   0.500   1.1428   0.01242   0.00539  -0.2395  0.6114  0.2134  -1.3314   0.0000   0.4567
   1.000   1.1899   0.01289   0.00566  -0.2375  0.5850  0.2519  -1.4019   0.0000   0.4458
   1.500   1.2386   0.01328   0.00598  -0.2358  0.5636  0.2923  -1.4750   0.0000   0.4358
   2.000   1.2881   0.01369   0.00635  -0.2344  0.5449  0.3432  -1.5535   0.0000   0.4265
   2.500   1.3373   0.01411   0.00678  -0.2329  0.5275  0.4130  -1.6327   0.0000   0.4179
   3.000   1.3845   0.01439   0.00725  -0.2311  0.5112  0.5135  -1.7132   0.0000   0.4099
   3.500   1.4265   0.01426   0.00766  -0.2281  0.4968  1.0000  -1.7946   0.0000   0.4020
   4.000   1.4717   0.01483   0.00809  -0.2259  0.4820  1.0000  -1.8832   0.0000   0.3947
   4.500   1.5159   0.01545   0.00856  -0.2235  0.4675  1.0000  -1.9721   0.0000   0.3878
   5.000   1.5576   0.01604   0.00909  -0.2207  0.4524  1.0000  -2.0592   0.0000   0.3812
   5.500   1.5975   0.01666   0.00968  -0.2176  0.4367  1.0000  -2.1507   0.0000   0.3748
   6.000   1.6365   0.01736   0.01036  -0.2144  0.4205  1.0000  -2.2426   0.0000   0.3687
   6.500   1.6734   0.01814   0.01111  -0.2109  0.4037  1.0000  -2.3367   0.0000   0.3628
   7.000   1.7089   0.01902   0.01195  -0.2073  0.3863  1.0000  -2.4323   0.0000   0.3572
   7.500   1.7417   0.02002   0.01294  -0.2033  0.3672  1.0000  -2.5263   0.0000   0.3517
   8.500   1.8007   0.02257   0.01542  -0.1947  0.3267  1.0000  -2.7186   0.0000   0.3411
   9.000   1.8263   0.02419   0.01700  -0.1902  0.3069  1.0000  -2.8101   0.0000   0.3361
   9.500   1.8512   0.02597   0.01876  -0.1857  0.2890  1.0000  -2.9048   0.0000   0.3313
  10.000   1.8751   0.02790   0.02071  -0.1813  0.2731  1.0000  -3.0080   0.0000   0.3266
  10.500   1.8981   0.02998   0.02284  -0.1771  0.2589  1.0000  -3.1102   0.0000   0.3222
  11.500   1.9358   0.03509   0.02803  -0.1684  0.2360  1.0000  -3.3030   0.0000   0.3137
  12.000   1.9562   0.03764   0.03075  -0.1648  0.2260  1.0000  -3.4170   0.0000   0.3098
  12.500   1.9716   0.04081   0.03400  -0.1609  0.2169  1.0000  -3.5223   0.0000   0.3060
  13.000   1.9874   0.04403   0.03739  -0.1575  0.2086  1.0000  -3.6334   0.0000   0.3025
  13.500   2.0004   0.04774   0.04120  -0.1542  0.2010  1.0000  -3.7446   0.0000   0.2991
  14.000   2.0122   0.05165   0.04532  -0.1514  0.1933  1.0000  -3.8764   0.0000   0.2960
  14.500   2.0213   0.05606   0.04982  -0.1486  0.1860  1.0000  -4.0098   0.0000   0.2930
  15.000   2.0300   0.06068   0.05472  -0.1465  0.1794  1.0000  -4.1420   0.0000   0.2903
  15.500   2.0365   0.06566   0.05971  -0.1444  0.1720  1.0000  -4.2840   0.0000   0.2878
  16.000   2.0381   0.07153   0.06594  -0.1430  0.1659  1.0000  -4.4228   0.0000   0.2857
  16.500   2.0381   0.07769   0.07222  -0.1420  0.1592  1.0000  -4.6476   0.0000   0.2838
  17.000   2.0373   0.08424   0.07904  -0.1415  0.1529  1.0000  -4.9549   0.0000   0.2821


