XFLR5 v6.09.06

 Calculated polar for: MIN ponta2016

 1 1 Reynolds number fixed          Mach number fixed         

 xtrf =   1.000 (top)        1.000 (bottom)
 Mach =   0.080     Re =     0.480 e 6     Ncrit =   9.000

  alpha     CL        CD       CDp       Cm    Top Xtr Bot Xtr   Cpmin    Chinge    XCp    
 ------- -------- --------- --------- -------- ------- ------- -------- --------- ---------
  -9.500   0.0235   0.11673   0.11423  -0.0859  0.9549  0.0154  -1.0883   0.0000   4.1705
  -9.000   0.0627   0.10987   0.10736  -0.0936  0.9527  0.0160  -1.0393   0.0000   1.8415
  -8.500   0.0806   0.10467   0.10219  -0.0953  0.9441  0.0165  -1.0630   0.0000   1.5049
  -8.000   0.1161   0.09802   0.09553  -0.1039  0.9407  0.0170  -1.2029   0.0000   1.1946
  -7.500   0.1305   0.09304   0.09058  -0.1071  0.9304  0.0170  -1.3384   0.0000   1.1124
  -7.000   0.1725   0.08642   0.08396  -0.1111  0.9278  0.0174  -1.1533   0.0000   0.9237
  -5.500   0.2451   0.07113   0.06873  -0.1190  0.8992  0.0201  -1.1410   0.0000   0.7520
  -4.000   0.3580   0.05371   0.05126  -0.1367  0.8518  0.0235  -1.1743   0.0000   0.6401
  -3.500   0.4356   0.04588   0.04330  -0.1528  0.8311  0.0256  -1.2291   0.0000   0.6068
  -3.000   0.5397   0.03730   0.03450  -0.1748  0.8049  0.0301  -1.2726   0.0000   0.5779
  -2.500   0.8278   0.01109   0.00565  -0.2452  0.7863  0.0213  -2.1503   0.0000   0.5488
  -2.000   0.8981   0.01051   0.00467  -0.2479  0.7465  0.0254  -1.8951   0.0000   0.5275
  -1.500   0.9525   0.01035   0.00427  -0.2472  0.7101  0.0366  -1.6369   0.0000   0.5101
  -1.000   0.9985   0.01036   0.00409  -0.2448  0.6705  0.0567  -1.3531   0.0000   0.4948
  -0.500   1.0409   0.01053   0.00409  -0.2417  0.6282  0.0939  -1.2006   0.0000   0.4809
   0.000   1.0853   0.01089   0.00431  -0.2390  0.5936  0.1496  -1.2594   0.0000   0.4681
   0.500   1.1311   0.01136   0.00459  -0.2367  0.5668  0.1875  -1.3239   0.0000   0.4563
   1.000   1.1798   0.01171   0.00487  -0.2351  0.5461  0.2212  -1.3957   0.0000   0.4454
   1.500   1.2286   0.01207   0.00516  -0.2335  0.5282  0.2578  -1.4690   0.0000   0.4354
   2.000   1.2776   0.01237   0.00548  -0.2319  0.5116  0.3017  -1.5473   0.0000   0.4260
   2.500   1.3265   0.01268   0.00584  -0.2304  0.4965  0.3624  -1.6264   0.0000   0.4174
   3.000   1.3751   0.01302   0.00625  -0.2288  0.4829  0.4341  -1.7076   0.0000   0.4093
   3.500   1.4225   0.01333   0.00676  -0.2272  0.4683  0.5673  -1.7947   0.0000   0.4017
   4.000   1.4648   0.01325   0.00715  -0.2243  0.4549  1.0000  -1.8807   0.0000   0.3943
   4.500   1.5100   0.01376   0.00758  -0.2221  0.4409  1.0000  -1.9707   0.0000   0.3874
   5.000   1.5535   0.01433   0.00808  -0.2197  0.4263  1.0000  -2.0600   0.0000   0.3809
   5.500   1.5953   0.01498   0.00863  -0.2170  0.4108  1.0000  -2.1535   0.0000   0.3746
   6.000   1.6358   0.01567   0.00926  -0.2142  0.3948  1.0000  -2.2473   0.0000   0.3686
   6.500   1.6764   0.01637   0.00993  -0.2114  0.3780  1.0000  -2.3461   0.0000   0.3629
   7.000   1.7137   0.01724   0.01074  -0.2081  0.3591  1.0000  -2.4443   0.0000   0.3573
   7.500   1.7495   0.01822   0.01166  -0.2047  0.3393  1.0000  -2.5430   0.0000   0.3519
   8.000   1.7841   0.01929   0.01271  -0.2012  0.3184  1.0000  -2.6460   0.0000   0.3467
   8.500   1.8160   0.02057   0.01393  -0.1974  0.2973  1.0000  -2.7462   0.0000   0.3417
   9.000   1.8455   0.02202   0.01534  -0.1934  0.2787  1.0000  -2.8439   0.0000   0.3368
   9.500   1.8735   0.02361   0.01691  -0.1894  0.2620  1.0000  -2.9461   0.0000   0.3320
  10.000   1.8998   0.02536   0.01868  -0.1852  0.2478  1.0000  -3.0543   0.0000   0.3274
  10.500   1.9222   0.02743   0.02074  -0.1808  0.2355  1.0000  -3.1571   0.0000   0.3229
  11.000   1.9469   0.02941   0.02280  -0.1769  0.2247  1.0000  -3.2643   0.0000   0.3186
  11.500   1.9689   0.03168   0.02516  -0.1729  0.2150  1.0000  -3.3712   0.0000   0.3145
  12.000   1.9861   0.03442   0.02794  -0.1687  0.2057  1.0000  -3.4818   0.0000   0.3105
  12.500   2.0067   0.03702   0.03070  -0.1652  0.1983  1.0000  -3.5986   0.0000   0.3067
  13.000   2.0206   0.04034   0.03411  -0.1614  0.1905  1.0000  -3.7105   0.0000   0.3031
  13.500   2.0361   0.04369   0.03761  -0.1582  0.1833  1.0000  -3.8332   0.0000   0.2996
  14.000   2.0473   0.04764   0.04169  -0.1551  0.1763  1.0000  -3.9734   0.0000   0.2965
  14.500   2.0551   0.05217   0.04636  -0.1522  0.1700  1.0000  -4.1054   0.0000   0.2935
  15.000   2.0656   0.05659   0.05097  -0.1500  0.1634  1.0000  -4.2456   0.0000   0.2908
  15.500   2.0639   0.06262   0.05710  -0.1478  0.1566  1.0000  -4.3755   0.0000   0.2884
  16.000   2.0729   0.06764   0.06237  -0.1465  0.1507  1.0000  -4.5489   0.0000   0.2861
  16.500   2.0677   0.07467   0.06951  -0.1454  0.1443  1.0000  -4.8340   0.0000   0.2843
  17.000   2.0692   0.08100   0.07610  -0.1448  0.1390  1.0000  -5.1637   0.0000   0.2826


