XFLR5 v6.09.06

 Calculated polar for: MIN ponta2016

 1 1 Reynolds number fixed          Mach number fixed         

 xtrf =   1.000 (top)        1.000 (bottom)
 Mach =   0.080     Re =     0.220 e 6     Ncrit =   9.000

  alpha     CL        CD       CDp       Cm    Top Xtr Bot Xtr   Cpmin    Chinge    XCp    
 ------- -------- --------- --------- -------- ------- ------- -------- --------- ---------
 -10.000  -0.1527   0.14241   0.13910  -0.0457  0.9782  0.0243  -1.3146   0.0000  -0.0834
  -9.500  -0.1148   0.13414   0.13083  -0.0508  0.9713  0.0248  -1.1803   0.0000  -0.2378
  -9.000  -0.0783   0.12748   0.12417  -0.0574  0.9648  0.0256  -1.0928   0.0000  -0.5481
  -8.500  -0.0491   0.12136   0.11806  -0.0625  0.9551  0.0266  -1.0461   0.0000  -1.1249
  -8.000  -0.0196   0.11532   0.11202  -0.0680  0.9457  0.0278  -1.0639   0.0000  -3.4705
  -7.500   0.0052   0.11029   0.10701  -0.0759  0.9351  0.0286  -1.2091   0.0000  15.7212
  -7.000   0.0439   0.10276   0.09948  -0.0803  0.9281  0.0292  -1.1195   0.0000   2.1800
  -6.500   0.0707   0.09735   0.09410  -0.0831  0.9162  0.0304  -1.0661   0.0000   1.4848
  -5.500   0.1067   0.08793   0.08473  -0.0924  0.8860  0.0334  -1.2634   0.0000   1.1492
  -5.000   0.1548   0.08022   0.07703  -0.0962  0.8814  0.0347  -1.1217   0.0000   0.8930
  -4.500   0.1859   0.07461   0.07143  -0.0999  0.8663  0.0371  -1.0999   0.0000   0.8032
  -4.000   0.2307   0.06748   0.06429  -0.1107  0.8511  0.0396  -1.2181   0.0000   0.7412
  -2.500   0.4487   0.04608   0.04269  -0.1464  0.8163  0.0581  -1.0532   0.0000   0.5798
  -2.000   0.7633   0.01845   0.01286  -0.2228  0.8163  0.0370  -1.7741   0.0000   0.5436
  -1.500   0.8754   0.01519   0.00880  -0.2337  0.7963  0.0478  -1.6054   0.0000   0.5176
  -1.000   0.9731   0.01376   0.00706  -0.2415  0.7636  0.0773  -1.3185   0.0000   0.4979
  -0.500   1.0493   0.01344   0.00650  -0.2451  0.7265  0.1336  -1.2031   0.0000   0.4825
   0.000   1.1054   0.01372   0.00661  -0.2447  0.6902  0.1973  -1.2702   0.0000   0.4693
   0.500   1.1562   0.01409   0.00674  -0.2432  0.6575  0.2450  -1.3392   0.0000   0.4575
   1.000   1.2046   0.01445   0.00691  -0.2413  0.6278  0.2877  -1.4106   0.0000   0.4466
   1.500   1.2546   0.01484   0.00718  -0.2398  0.6028  0.3325  -1.4850   0.0000   0.4366
   2.000   1.3044   0.01525   0.00757  -0.2384  0.5808  0.3919  -1.5635   0.0000   0.4274
   2.500   1.3556   0.01565   0.00801  -0.2373  0.5612  0.4789  -1.6442   0.0000   0.4189
   3.000   1.3995   0.01549   0.00841  -0.2346  0.5436  1.0000  -1.7223   0.0000   0.4106
   3.500   1.4490   0.01617   0.00883  -0.2332  0.5263  1.0000  -1.8110   0.0000   0.4031
   4.000   1.4944   0.01680   0.00931  -0.2309  0.5101  1.0000  -1.8998   0.0000   0.3958
   4.500   1.5361   0.01741   0.00985  -0.2280  0.4939  1.0000  -1.9858   0.0000   0.3889
   5.000   1.5772   0.01807   0.01046  -0.2250  0.4779  1.0000  -2.0727   0.0000   0.3822
   5.500   1.6171   0.01877   0.01108  -0.2219  0.4619  1.0000  -2.1645   0.0000   0.3759
   6.000   1.6541   0.01951   0.01178  -0.2182  0.4453  1.0000  -2.2542   0.0000   0.3697
   6.500   1.6889   0.02031   0.01253  -0.2142  0.4282  1.0000  -2.3467   0.0000   0.3637
   7.000   1.7205   0.02119   0.01340  -0.2097  0.4102  1.0000  -2.4375   0.0000   0.3578
   7.500   1.7507   0.02220   0.01440  -0.2052  0.3919  1.0000  -2.5284   0.0000   0.3522
   8.000   1.7779   0.02335   0.01558  -0.2003  0.3723  1.0000  -2.6209   0.0000   0.3467
   8.500   1.8032   0.02469   0.01694  -0.1952  0.3522  1.0000  -2.7111   0.0000   0.3413
   9.500   1.8503   0.02802   0.02029  -0.1854  0.3143  1.0000  -2.8918   0.0000   0.3312
  10.000   1.8725   0.03000   0.02229  -0.1807  0.2977  1.0000  -2.9915   0.0000   0.3265
  10.500   1.8939   0.03219   0.02450  -0.1762  0.2828  1.0000  -3.0903   0.0000   0.3220
  11.000   1.9146   0.03458   0.02686  -0.1719  0.2692  1.0000  -3.1884   0.0000   0.3176
  11.500   1.9337   0.03708   0.02952  -0.1676  0.2573  1.0000  -3.2853   0.0000   0.3134
  12.000   1.9527   0.03980   0.03238  -0.1637  0.2463  1.0000  -3.3951   0.0000   0.3095
  12.500   1.9733   0.04263   0.03519  -0.1602  0.2359  1.0000  -3.5093   0.0000   0.3057
  13.000   1.9847   0.04598   0.03884  -0.1562  0.2267  1.0000  -3.6113   0.0000   0.3020
  13.500   2.0043   0.04914   0.04205  -0.1532  0.2181  1.0000  -3.7375   0.0000   0.2986
  14.000   2.0128   0.05310   0.04630  -0.1497  0.2101  1.0000  -3.8600   0.0000   0.2953
  14.500   2.0291   0.05672   0.04999  -0.1471  0.2019  1.0000  -4.0109   0.0000   0.2922
  15.000   2.0308   0.06169   0.05529  -0.1442  0.1946  1.0000  -4.1248   0.0000   0.2894
  15.500   2.0486   0.06533   0.05896  -0.1422  0.1869  1.0000  -4.3007   0.0000   0.2865
  16.000   2.0407   0.07175   0.06581  -0.1401  0.1805  1.0000  -4.4105   0.0000   0.2843
  16.500   2.0496   0.07642   0.07053  -0.1386  0.1730  1.0000  -4.6887   0.0000   0.2819
  17.000   2.0378   0.08391   0.07844  -0.1377  0.1665  1.0000  -4.9290   0.0000   0.2805


