XFLR5 v6.09.06

 Calculated polar for: MIN ponta2016

 1 1 Reynolds number fixed          Mach number fixed         

 xtrf =   1.000 (top)        1.000 (bottom)
 Mach =   0.000     Re =     0.120 e 6     Ncrit =   9.000

  alpha     CL        CD       CDp       Cm    Top Xtr Bot Xtr   Cpmin    Chinge    XCp    
 ------- -------- --------- --------- -------- ------- ------- -------- --------- ---------
 -10.000  -0.2439   0.15305   0.14886  -0.0187  1.0000  0.0384  -1.1930   0.0000   0.1553
  -9.500  -0.2508   0.15122   0.14714  -0.0177  1.0000  0.0388  -1.2464   0.0000   0.1628
  -9.000  -0.2637   0.15044   0.14647  -0.0168  1.0000  0.0390  -1.3195   0.0000   0.1716
  -8.500  -0.2109   0.13989   0.13590  -0.0236  0.9909  0.0405  -1.1406   0.0000   0.1194
  -8.000  -0.1690   0.13319   0.12919  -0.0324  0.9786  0.0426  -1.0866   0.0000   0.0346
  -7.500  -0.1344   0.12764   0.12364  -0.0413  0.9655  0.0448  -1.1306   0.0000  -0.0868
  -7.000  -0.1074   0.12287   0.11889  -0.0501  0.9519  0.0456  -1.2173   0.0000  -0.2527
  -6.500  -0.0666   0.11481   0.11084  -0.0536  0.9399  0.0478  -1.0976   0.0000  -0.6105
  -5.500  -0.0372   0.10756   0.10367  -0.0633  0.9009  0.0526  -1.2379   0.0000  -1.5396
  -5.000  -0.0022   0.09954   0.09566  -0.0650  0.8869  0.0544  -1.1556   0.0000  -31.1592
  -4.500   0.0326   0.09358   0.08972  -0.0696  0.8703  0.0585  -1.1220   0.0000   2.4710
  -4.000   0.0765   0.08686   0.08300  -0.0808  0.8520  0.0627  -1.1936   0.0000   1.3390
  -3.500   0.1552   0.07998   0.07605  -0.1015  0.8347  0.0722  -1.2617   0.0000   0.9184
  -2.500   0.2800   0.06413   0.06012  -0.1146  0.8137  0.0870  -1.0680   0.0000   0.6649
  -2.000   0.3757   0.05642   0.05228  -0.1318  0.7992  0.1005  -1.0070   0.0000   0.6040
  -1.500   0.5001   0.04746   0.04313  -0.1507  0.7959  0.1189  -0.8584   0.0000   0.5528
  -0.500   0.9254   0.02134   0.01402  -0.2256  0.7834  0.1183  -1.1751   0.0000   0.4928
   0.000   1.0347   0.01958   0.01201  -0.2346  0.7628  0.2064  -1.2073   0.0000   0.4750
   0.500   1.1247   0.01901   0.01127  -0.2405  0.7370  0.2903  -1.3023   0.0000   0.4612
   1.000   1.1872   0.01911   0.01119  -0.2412  0.7073  0.3479  -1.3831   0.0000   0.4498
   1.500   1.2529   0.01919   0.01110  -0.2426  0.6817  0.4106  -1.4687   0.0000   0.4394
   2.000   1.3027   0.01942   0.01130  -0.2410  0.6557  0.4875  -1.5456   0.0000   0.4299
   2.500   1.3508   0.01919   0.01152  -0.2389  0.6328  0.7181  -1.6222   0.0000   0.4209
   3.000   1.4009   0.01964   0.01167  -0.2373  0.6113  1.0000  -1.7043   0.0000   0.4126
   3.500   1.4528   0.02043   0.01216  -0.2363  0.5907  1.0000  -1.7935   0.0000   0.4050
   4.000   1.5030   0.02129   0.01276  -0.2350  0.5706  1.0000  -1.8856   0.0000   0.3979
   4.500   1.5511   0.02220   0.01349  -0.2334  0.5509  1.0000  -1.9767   0.0000   0.3911
   5.000   1.5971   0.02314   0.01433  -0.2314  0.5318  1.0000  -2.0684   0.0000   0.3846
   5.500   1.6408   0.02409   0.01519  -0.2290  0.5125  1.0000  -2.1627   0.0000   0.3784
   6.000   1.6824   0.02504   0.01611  -0.2262  0.4932  1.0000  -2.2560   0.0000   0.3724
   6.500   1.7216   0.02599   0.01702  -0.2231  0.4736  1.0000  -2.3534   0.0000   0.3666
   7.000   1.7582   0.02694   0.01796  -0.2195  0.4537  1.0000  -2.4489   0.0000   0.3609
   7.500   1.7924   0.02794   0.01893  -0.2155  0.4337  1.0000  -2.5462   0.0000   0.3554
   8.000   1.8237   0.02901   0.01998  -0.2110  0.4138  1.0000  -2.6428   0.0000   0.3499
   8.500   1.8524   0.03021   0.02115  -0.2062  0.3944  1.0000  -2.7359   0.0000   0.3445
   9.000   1.8752   0.03155   0.02254  -0.2006  0.3754  1.0000  -2.8243   0.0000   0.3392
   9.500   1.8983   0.03307   0.02409  -0.1953  0.3573  1.0000  -2.9204   0.0000   0.3341
  10.000   1.9214   0.03477   0.02585  -0.1902  0.3403  1.0000  -3.0197   0.0000   0.3292
  10.500   1.9374   0.03676   0.02799  -0.1842  0.3245  1.0000  -3.1080   0.0000   0.3243
  11.000   1.9558   0.03903   0.03044  -0.1791  0.3100  1.0000  -3.1991   0.0000   0.3197
  11.500   1.9751   0.04148   0.03304  -0.1744  0.2966  1.0000  -3.3033   0.0000   0.3153
  12.000   2.0025   0.04383   0.03546  -0.1710  0.2844  1.0000  -3.4256   0.0000   0.3113
  12.500   2.0228   0.04640   0.03818  -0.1669  0.2728  1.0000  -3.5406   0.0000   0.3073
  13.000   2.0276   0.05004   0.04217  -0.1614  0.2624  1.0000  -3.6291   0.0000   0.3033
  13.500   2.0605   0.05253   0.04468  -0.1593  0.2518  1.0000  -3.7975   0.0000   0.2998
  14.000   2.0484   0.05729   0.04990  -0.1529  0.2432  1.0000  -3.8761   0.0000   0.2960
  14.500   2.0730   0.06051   0.05326  -0.1505  0.2341  1.0000  -4.0428   0.0000   0.2927
  15.000   2.0504   0.06662   0.05985  -0.1447  0.2264  1.0000  -4.0945   0.0000   0.2895
  15.500   2.0720   0.07012   0.06347  -0.1427  0.2177  1.0000  -4.2878   0.0000   0.2865
  16.000   2.0229   0.07953   0.07349  -0.1379  0.2114  1.0000  -4.2721   0.0000   0.2845
  16.500   2.0615   0.08141   0.07535  -0.1369  0.2025  1.0000  -4.6649   0.0000   0.2814
  17.000   1.9704   0.09712   0.09182  -0.1352  0.1979  1.0000  -4.4255   0.0000   0.2822


