XFLR5 v6.09.06

 Calculated polar for: MIN ponta2016

 1 1 Reynolds number fixed          Mach number fixed         

 xtrf =   1.000 (top)        1.000 (bottom)
 Mach =   0.000     Re =     0.280 e 6     Ncrit =   9.000

  alpha     CL        CD       CDp       Cm    Top Xtr Bot Xtr   Cpmin    Chinge    XCp    
 ------- -------- --------- --------- -------- ------- ------- -------- --------- ---------
  -9.500  -0.0682   0.12795   0.12491  -0.0625  0.9651  0.0211  -1.1519   0.0000  -0.7463
  -9.000  -0.0399   0.12191   0.11888  -0.0670  0.9567  0.0217  -1.0843   0.0000  -1.5632
  -8.500  -0.0018   0.11529   0.11225  -0.0744  0.9526  0.0226  -1.0404   0.0000  -43.7268
  -8.000   0.0233   0.10949   0.10647  -0.0784  0.9427  0.0236  -1.0600   0.0000   3.8342
  -7.500   0.0465   0.10414   0.10113  -0.0849  0.9322  0.0243  -1.2042   0.0000   2.1793
  -7.000   0.0864   0.09688   0.09388  -0.0908  0.9274  0.0247  -1.1488   0.0000   1.3546
  -6.500   0.1114   0.09171   0.08874  -0.0927  0.9159  0.0256  -1.0762   0.0000   1.1207
  -6.000   0.1529   0.08542   0.08244  -0.1000  0.9114  0.0272  -1.0618   0.0000   0.9312
  -5.000   0.1953   0.07433   0.07141  -0.1062  0.8822  0.0292  -1.1782   0.0000   0.8111
  -4.000   0.2806   0.06105   0.05811  -0.1236  0.8535  0.0337  -1.3138   0.0000   0.7002
  -3.500   0.3408   0.05508   0.05210  -0.1295  0.8474  0.0368  -1.1335   0.0000   0.6370
  -3.000   0.4147   0.04766   0.04459  -0.1436  0.8311  0.0413  -1.1533   0.0000   0.6010
  -2.500   0.5572   0.03658   0.03326  -0.1759  0.8153  0.0537  -1.2009   0.0000   0.5685
  -2.000   0.6914   0.02842   0.02474  -0.1994  0.7970  0.0642  -1.0237   0.0000   0.5400
  -1.500   0.9177   0.01271   0.00637  -0.2410  0.7781  0.0459  -1.5989   0.0000   0.5133
  -1.000   0.9980   0.01216   0.00558  -0.2457  0.7402  0.0762  -1.2794   0.0000   0.4960
  -0.500   1.0550   0.01217   0.00541  -0.2456  0.7019  0.1297  -1.2053   0.0000   0.4816
   0.000   1.1018   0.01251   0.00557  -0.2433  0.6640  0.1858  -1.2660   0.0000   0.4688
   0.500   1.1466   0.01288   0.00574  -0.2407  0.6304  0.2261  -1.3303   0.0000   0.4570
   1.000   1.1934   0.01330   0.00597  -0.2386  0.6020  0.2661  -1.4003   0.0000   0.4462
   1.500   1.2414   0.01369   0.00627  -0.2369  0.5786  0.3080  -1.4727   0.0000   0.4362
   2.000   1.2903   0.01409   0.00665  -0.2353  0.5586  0.3622  -1.5503   0.0000   0.4270
   2.500   1.3394   0.01447   0.00708  -0.2339  0.5406  0.4364  -1.6290   0.0000   0.4184
   3.000   1.3893   0.01476   0.00761  -0.2328  0.5236  0.5834  -1.7117   0.0000   0.4105
   4.000   1.4742   0.01535   0.00836  -0.2271  0.4932  1.0000  -1.8790   0.0000   0.3953
   4.500   1.5172   0.01593   0.00885  -0.2245  0.4779  1.0000  -1.9660   0.0000   0.3884
   5.000   1.5596   0.01656   0.00940  -0.2219  0.4632  1.0000  -2.0534   0.0000   0.3818
   5.500   1.5998   0.01724   0.00997  -0.2189  0.4477  1.0000  -2.1450   0.0000   0.3755
   6.000   1.6377   0.01797   0.01064  -0.2155  0.4315  1.0000  -2.2353   0.0000   0.3694
   6.500   1.6727   0.01871   0.01138  -0.2117  0.4145  1.0000  -2.3270   0.0000   0.3634
   7.000   1.7069   0.01955   0.01224  -0.2079  0.3971  1.0000  -2.4204   0.0000   0.3577
   7.500   1.7392   0.02053   0.01320  -0.2038  0.3786  1.0000  -2.5132   0.0000   0.3522
   8.000   1.7682   0.02171   0.01434  -0.1994  0.3589  1.0000  -2.6078   0.0000   0.3467
   8.500   1.7961   0.02303   0.01565  -0.1949  0.3391  1.0000  -2.7013   0.0000   0.3415
   9.000   1.8226   0.02452   0.01715  -0.1905  0.3191  1.0000  -2.7931   0.0000   0.3365
   9.500   1.8469   0.02625   0.01887  -0.1859  0.3005  1.0000  -2.8869   0.0000   0.3317
  10.000   1.8698   0.02819   0.02082  -0.1814  0.2842  1.0000  -2.9876   0.0000   0.3270
  10.500   1.8902   0.03040   0.02302  -0.1768  0.2694  1.0000  -3.0850   0.0000   0.3225
  11.000   1.9115   0.03264   0.02534  -0.1727  0.2564  1.0000  -3.1839   0.0000   0.3182
  11.500   1.9323   0.03504   0.02786  -0.1687  0.2450  1.0000  -3.2835   0.0000   0.3141
  12.000   1.9493   0.03789   0.03073  -0.1646  0.2345  1.0000  -3.3904   0.0000   0.3101
  12.500   1.9662   0.04076   0.03377  -0.1609  0.2248  1.0000  -3.4977   0.0000   0.3063
  13.000   1.9819   0.04398   0.03710  -0.1574  0.2162  1.0000  -3.6075   0.0000   0.3027
  13.500   1.9959   0.04742   0.04071  -0.1541  0.2081  1.0000  -3.7213   0.0000   0.2993
  14.000   2.0089   0.05117   0.04459  -0.1511  0.2003  1.0000  -3.8554   0.0000   0.2961
  14.500   2.0180   0.05537   0.04901  -0.1484  0.1927  1.0000  -3.9874   0.0000   0.2931
  15.000   2.0287   0.05964   0.05339  -0.1460  0.1856  1.0000  -4.1241   0.0000   0.2903
  15.500   2.0333   0.06471   0.05874  -0.1439  0.1789  1.0000  -4.2608   0.0000   0.2878
  16.000   2.0411   0.06951   0.06358  -0.1421  0.1715  1.0000  -4.4193   0.0000   0.2853
  16.500   2.0378   0.07596   0.07040  -0.1410  0.1651  1.0000  -4.6576   0.0000   0.2834
  17.000   2.0397   0.08180   0.07631  -0.1401  0.1583  1.0000  -4.9815   0.0000   0.2815


