XFLR5 v6.09.06

 Calculated polar for: MIN ponta2016

 1 1 Reynolds number fixed          Mach number fixed         

 xtrf =   1.000 (top)        1.000 (bottom)
 Mach =   0.080     Re =     0.200 e 6     Ncrit =   9.000

  alpha     CL        CD       CDp       Cm    Top Xtr Bot Xtr   Cpmin    Chinge    XCp    
 ------- -------- --------- --------- -------- ------- ------- -------- --------- ---------
 -10.000  -0.1676   0.14362   0.14021  -0.0380  0.9853  0.0258  -1.1669   0.0000  -0.0070
  -9.500  -0.1323   0.13675   0.13333  -0.0453  0.9763  0.0268  -1.1237   0.0000  -0.1305
  -9.000  -0.1005   0.13031   0.12689  -0.0519  0.9668  0.0280  -1.1066   0.0000  -0.3160
  -8.500  -0.0738   0.12502   0.12160  -0.0599  0.9564  0.0286  -1.1865   0.0000  -0.6270
  -8.000  -0.0333   0.11720   0.11379  -0.0662  0.9512  0.0291  -1.1219   0.0000  -1.8814
  -7.500  -0.0025   0.11115   0.10775  -0.0703  0.9409  0.0302  -1.0622   0.0000  -29.5888
  -7.000   0.0252   0.10548   0.10210  -0.0747  0.9293  0.0316  -1.0553   0.0000   3.3838
  -6.500   0.0474   0.10055   0.09719  -0.0801  0.9160  0.0332  -1.1482   0.0000   2.0271
  -6.000   0.0644   0.09536   0.09203  -0.0832  0.9017  0.0338  -1.2089   0.0000   1.6013
  -5.500   0.1111   0.08836   0.08503  -0.0884  0.8967  0.0356  -1.0827   0.0000   1.0775
  -5.000   0.1359   0.08299   0.07969  -0.0921  0.8813  0.0380  -1.1098   0.0000   0.9517
  -4.500   0.1700   0.07635   0.07305  -0.0999  0.8655  0.0396  -1.2003   0.0000   0.8546
  -4.000   0.2039   0.07088   0.06760  -0.1017  0.8510  0.0422  -1.1092   0.0000   0.7612
  -3.000   0.3491   0.05496   0.05156  -0.1303  0.8312  0.0543  -1.1473   0.0000   0.6289
  -2.000   0.5585   0.03886   0.03515  -0.1678  0.8037  0.0745  -0.9867   0.0000   0.5524
  -1.500   0.7404   0.02787   0.02362  -0.2024  0.7917  0.0885  -0.9948   0.0000   0.5239
  -1.000   0.9583   0.01462   0.00787  -0.2390  0.7738  0.0777  -1.3345   0.0000   0.4992
  -0.500   1.0471   0.01402   0.00701  -0.2450  0.7387  0.1370  -1.2009   0.0000   0.4829
   0.000   1.1059   0.01430   0.00707  -0.2451  0.7025  0.2038  -1.2699   0.0000   0.4696
   0.500   1.1564   0.01461   0.00721  -0.2436  0.6689  0.2525  -1.3383   0.0000   0.4578
   1.000   1.2073   0.01495   0.00737  -0.2421  0.6400  0.2967  -1.4117   0.0000   0.4469
   1.500   1.2558   0.01532   0.00761  -0.2403  0.6134  0.3435  -1.4846   0.0000   0.4369
   2.000   1.3070   0.01573   0.00796  -0.2391  0.5910  0.4055  -1.5644   0.0000   0.4276
   2.500   1.3592   0.01610   0.00839  -0.2383  0.5707  0.4997  -1.6459   0.0000   0.4191
   3.000   1.4017   0.01597   0.00876  -0.2352  0.5525  1.0000  -1.7227   0.0000   0.4108
   3.500   1.4499   0.01666   0.00922  -0.2335  0.5345  1.0000  -1.8098   0.0000   0.4032
   4.000   1.4972   0.01736   0.00975  -0.2317  0.5177  1.0000  -1.9004   0.0000   0.3961
   4.500   1.5431   0.01806   0.01031  -0.2296  0.5014  1.0000  -1.9906   0.0000   0.3892
   5.000   1.5866   0.01877   0.01091  -0.2271  0.4851  1.0000  -2.0806   0.0000   0.3827
   5.500   1.6285   0.01949   0.01151  -0.2243  0.4688  1.0000  -2.1747   0.0000   0.3764
   6.000   1.6625   0.02019   0.01222  -0.2200  0.4518  1.0000  -2.2611   0.0000   0.3701
   6.500   1.6948   0.02097   0.01300  -0.2155  0.4343  1.0000  -2.3508   0.0000   0.3640
   7.000   1.7256   0.02184   0.01389  -0.2108  0.4161  1.0000  -2.4406   0.0000   0.3581
   7.500   1.7550   0.02284   0.01488  -0.2061  0.3976  1.0000  -2.5307   0.0000   0.3524
   8.000   1.7822   0.02400   0.01604  -0.2011  0.3784  1.0000  -2.6231   0.0000   0.3469
   8.500   1.8074   0.02535   0.01736  -0.1960  0.3588  1.0000  -2.7135   0.0000   0.3415
   9.000   1.8317   0.02690   0.01891  -0.1910  0.3397  1.0000  -2.8024   0.0000   0.3364
   9.500   1.8539   0.02866   0.02068  -0.1860  0.3212  1.0000  -2.8937   0.0000   0.3314
  10.000   1.8760   0.03062   0.02264  -0.1812  0.3042  1.0000  -2.9932   0.0000   0.3266
  10.500   1.8972   0.03275   0.02485  -0.1766  0.2890  1.0000  -3.0913   0.0000   0.3220
  11.000   1.9167   0.03508   0.02730  -0.1720  0.2750  1.0000  -3.1867   0.0000   0.3176
  11.500   1.9373   0.03759   0.02991  -0.1680  0.2628  1.0000  -3.2864   0.0000   0.3135
  12.000   1.9598   0.04018   0.03251  -0.1644  0.2516  1.0000  -3.4029   0.0000   0.3095
  12.500   1.9735   0.04318   0.03574  -0.1601  0.2412  1.0000  -3.5038   0.0000   0.3056
  13.000   1.9916   0.04627   0.03895  -0.1566  0.2317  1.0000  -3.6186   0.0000   0.3020
  13.500   2.0063   0.04958   0.04240  -0.1531  0.2227  1.0000  -3.7364   0.0000   0.2985
  14.000   2.0200   0.05326   0.04632  -0.1499  0.2146  1.0000  -3.8708   0.0000   0.2952
  14.500   2.0304   0.05717   0.05039  -0.1469  0.2064  1.0000  -4.0076   0.0000   0.2920
  15.000   2.0382   0.06165   0.05512  -0.1441  0.1988  1.0000  -4.1364   0.0000   0.2891
  15.500   2.0427   0.06642   0.06012  -0.1416  0.1915  1.0000  -4.2757   0.0000   0.2864
  16.000   2.0497   0.07130   0.06521  -0.1396  0.1843  1.0000  -4.4306   0.0000   0.2839
  16.500   2.0434   0.07763   0.07184  -0.1379  0.1772  1.0000  -4.6395   0.0000   0.2819
  17.000   2.0482   0.08289   0.07725  -0.1368  0.1700  1.0000  -4.9819   0.0000   0.2798


