XFLR5 v6.09.06

 Calculated polar for: MIN ponta2016

 1 1 Reynolds number fixed          Mach number fixed         

 xtrf =   1.000 (top)        1.000 (bottom)
 Mach =   0.000     Re =     0.340 e 6     Ncrit =   9.000

  alpha     CL        CD       CDp       Cm    Top Xtr Bot Xtr   Cpmin    Chinge    XCp    
 ------- -------- --------- --------- -------- ------- ------- -------- --------- ---------
 -10.000   0.0801   0.10543   0.10276  -0.0842  0.9417  0.0202  -0.8285   0.0000   1.3543
  -9.500   0.1050   0.09864   0.09595  -0.0908  0.9397  0.0205  -0.9041   0.0000   1.1562
  -9.000  -0.0035   0.11752   0.11469  -0.0762  0.9543  0.0197  -1.0678   0.0000  -22.8628
  -8.000   0.0523   0.10565   0.10282  -0.0906  0.9408  0.0205  -1.2888   0.0000   2.0837
  -7.500   0.0806   0.09922   0.09642  -0.0912  0.9322  0.0209  -1.1429   0.0000   1.4436
  -7.000   0.1203   0.09305   0.09026  -0.0973  0.9276  0.0217  -1.0658   0.0000   1.0992
  -6.500   0.1421   0.08806   0.08529  -0.0995  0.9162  0.0226  -1.0576   0.0000   0.9821
  -5.500   0.1979   0.07587   0.07313  -0.1111  0.8971  0.0246  -1.2513   0.0000   0.8307
  -5.000   0.2231   0.07108   0.06836  -0.1109  0.8837  0.0254  -1.1258   0.0000   0.7627
  -4.500   0.2556   0.06556   0.06285  -0.1151  0.8698  0.0272  -1.1148   0.0000   0.7126
  -3.500   0.3618   0.05227   0.04948  -0.1343  0.8409  0.0320  -1.1614   0.0000   0.6280
  -3.000   0.4945   0.03990   0.03689  -0.1677  0.8259  0.0393  -1.3992   0.0000   0.5934
  -2.500   0.5925   0.03360   0.03040  -0.1831  0.8061  0.0467  -1.1869   0.0000   0.5618
  -2.000   0.8581   0.01226   0.00636  -0.2401  0.7932  0.0297  -1.8755   0.0000   0.5314
  -1.500   0.9414   0.01156   0.00532  -0.2454  0.7554  0.0441  -1.5829   0.0000   0.5113
  -1.000   1.0036   0.01139   0.00491  -0.2464  0.7174  0.0704  -1.2860   0.0000   0.4952
  -0.500   1.0526   0.01140   0.00481  -0.2447  0.6781  0.1196  -1.2044   0.0000   0.4813
   0.000   1.0950   0.01174   0.00497  -0.2416  0.6398  0.1734  -1.2621   0.0000   0.4685
   0.500   1.1383   0.01218   0.00517  -0.2387  0.6069  0.2105  -1.3250   0.0000   0.4567
   1.000   1.1847   0.01260   0.00544  -0.2365  0.5809  0.2481  -1.3946   0.0000   0.4459
   1.500   1.2333   0.01299   0.00576  -0.2349  0.5596  0.2883  -1.4674   0.0000   0.4359
   2.000   1.2825   0.01337   0.00613  -0.2335  0.5413  0.3381  -1.5453   0.0000   0.4266
   2.500   1.3309   0.01377   0.00655  -0.2319  0.5242  0.4071  -1.6235   0.0000   0.4180
   3.500   1.4208   0.01393   0.00742  -0.2274  0.4940  1.0000  -1.7853   0.0000   0.4022
   4.000   1.4659   0.01446   0.00783  -0.2252  0.4792  1.0000  -1.8733   0.0000   0.3949
   4.500   1.5102   0.01504   0.00829  -0.2229  0.4651  1.0000  -1.9617   0.0000   0.3880
   5.000   1.5524   0.01569   0.00882  -0.2203  0.4501  1.0000  -2.0490   0.0000   0.3814
   5.500   1.5923   0.01627   0.00938  -0.2173  0.4346  1.0000  -2.1401   0.0000   0.3751
   6.000   1.6316   0.01694   0.01003  -0.2142  0.4185  1.0000  -2.2319   0.0000   0.3690
   6.500   1.6692   0.01769   0.01075  -0.2109  0.4019  1.0000  -2.3264   0.0000   0.3632
   7.000   1.7054   0.01853   0.01158  -0.2075  0.3847  1.0000  -2.4222   0.0000   0.3576
   7.500   1.7388   0.01951   0.01252  -0.2037  0.3655  1.0000  -2.5167   0.0000   0.3521
   8.000   1.7702   0.02064   0.01362  -0.1997  0.3455  1.0000  -2.6146   0.0000   0.3468
   8.500   1.7988   0.02198   0.01491  -0.1954  0.3251  1.0000  -2.7093   0.0000   0.3416
   9.000   1.8248   0.02357   0.01644  -0.1909  0.3052  1.0000  -2.8010   0.0000   0.3366
   9.500   1.8506   0.02527   0.01812  -0.1866  0.2873  1.0000  -2.8972   0.0000   0.3318
  10.000   1.8744   0.02716   0.02002  -0.1822  0.2711  1.0000  -2.9999   0.0000   0.3272
  10.500   1.8981   0.02914   0.02205  -0.1781  0.2570  1.0000  -3.1028   0.0000   0.3227
  11.000   1.9207   0.03129   0.02429  -0.1741  0.2452  1.0000  -3.2042   0.0000   0.3185
  11.500   1.9385   0.03391   0.02694  -0.1697  0.2343  1.0000  -3.3003   0.0000   0.3143
  12.000   1.9574   0.03652   0.02966  -0.1659  0.2242  1.0000  -3.4116   0.0000   0.3103
  12.500   1.9746   0.03944   0.03271  -0.1622  0.2152  1.0000  -3.5196   0.0000   0.3066
  13.000   1.9892   0.04270   0.03607  -0.1586  0.2070  1.0000  -3.6289   0.0000   0.3030
  13.500   2.0036   0.04617   0.03970  -0.1554  0.1994  1.0000  -3.7440   0.0000   0.2996
  14.000   2.0147   0.05008   0.04376  -0.1524  0.1917  1.0000  -3.8767   0.0000   0.2965
  14.500   2.0244   0.05435   0.04817  -0.1497  0.1846  1.0000  -4.0105   0.0000   0.2935
  15.000   2.0334   0.05884   0.05288  -0.1474  0.1780  1.0000  -4.1433   0.0000   0.2908
  15.500   2.0384   0.06396   0.05808  -0.1453  0.1710  1.0000  -4.2836   0.0000   0.2882
  16.000   2.0421   0.06949   0.06391  -0.1439  0.1645  1.0000  -4.4287   0.0000   0.2860
  16.500   2.0425   0.07547   0.06994  -0.1426  0.1575  1.0000  -4.6968   0.0000   0.2840
  17.000   2.0419   0.08202   0.07683  -0.1421  0.1516  1.0000  -5.0026   0.0000   0.2824


