XFLR5 v6.09.06

 Calculated polar for: MIN ponta2016

 1 1 Reynolds number fixed          Mach number fixed         

 xtrf =   1.000 (top)        1.000 (bottom)
 Mach =   0.080     Re =     0.140 e 6     Ncrit =   9.000

  alpha     CL        CD       CDp       Cm    Top Xtr Bot Xtr   Cpmin    Chinge    XCp    
 ------- -------- --------- --------- -------- ------- ------- -------- --------- ---------
 -10.000  -0.2535   0.15462   0.15076  -0.0188  1.0000  0.0334  -1.2974   0.0000   0.1585
  -9.500  -0.2393   0.14892   0.14512  -0.0201  0.9976  0.0338  -1.2538   0.0000   0.1481
  -9.000  -0.1934   0.14104   0.13721  -0.0287  0.9879  0.0351  -1.1404   0.0000   0.0795
  -8.500  -0.1541   0.13436   0.13052  -0.0370  0.9772  0.0368  -1.0881   0.0000  -0.0180
  -8.000  -0.1204   0.12850   0.12466  -0.0453  0.9656  0.0385  -1.1157   0.0000  -0.1614
  -7.500  -0.0961   0.12414   0.12033  -0.0542  0.9527  0.0391  -1.2324   0.0000  -0.3581
  -7.000  -0.0568   0.11576   0.11196  -0.0567  0.9418  0.0407  -1.0916   0.0000  -0.8196
  -6.500  -0.0269   0.11009   0.10630  -0.0617  0.9288  0.0429  -1.0770   0.0000  -2.1904
  -6.000  -0.0084   0.10623   0.10247  -0.0679  0.9132  0.0451  -1.1784   0.0000  -8.2939
  -5.000   0.0467   0.09402   0.09031  -0.0732  0.8833  0.0488  -1.1040   0.0000   1.8848
  -4.500   0.0996   0.08821   0.08447  -0.0933  0.8649  0.0529  -1.3170   0.0000   1.2157
  -4.000   0.1193   0.08135   0.07766  -0.0859  0.8506  0.0550  -1.1364   0.0000   0.9914
  -3.500   0.1831   0.07408   0.07036  -0.1018  0.8341  0.0624  -1.2099   0.0000   0.8181
  -2.500   0.3219   0.05915   0.05532  -0.1201  0.8143  0.0779  -1.0336   0.0000   0.6281
  -2.000   0.4162   0.05138   0.04743  -0.1365  0.8006  0.0892  -0.9660   0.0000   0.5806
  -1.000   0.8746   0.02023   0.01333  -0.2255  0.7967  0.0771  -1.3962   0.0000   0.5077
  -0.500   0.9874   0.01793   0.01063  -0.2354  0.7757  0.1291  -1.1555   0.0000   0.4874
   0.000   1.0727   0.01730   0.00985  -0.2405  0.7448  0.2118  -1.2412   0.0000   0.4723
   0.500   1.1449   0.01735   0.00971  -0.2431  0.7144  0.2799  -1.3244   0.0000   0.4597
   1.000   1.2037   0.01756   0.00972  -0.2431  0.6850  0.3323  -1.4032   0.0000   0.4485
   1.500   1.2595   0.01782   0.00983  -0.2426  0.6585  0.3880  -1.4815   0.0000   0.4383
   2.000   1.3109   0.01810   0.01007  -0.2413  0.6332  0.4600  -1.5606   0.0000   0.4289
   2.500   1.3618   0.01819   0.01036  -0.2399  0.6111  0.6038  -1.6405   0.0000   0.4202
   3.000   1.4081   0.01835   0.01058  -0.2375  0.5908  1.0000  -1.7203   0.0000   0.4118
   3.500   1.4591   0.01915   0.01109  -0.2363  0.5709  1.0000  -1.8094   0.0000   0.4043
   4.000   1.5077   0.01998   0.01170  -0.2347  0.5515  1.0000  -1.9009   0.0000   0.3971
   4.500   1.5546   0.02084   0.01241  -0.2328  0.5329  1.0000  -1.9915   0.0000   0.3903
   5.000   1.5994   0.02171   0.01320  -0.2306  0.5146  1.0000  -2.0826   0.0000   0.3838
   5.500   1.6420   0.02257   0.01399  -0.2279  0.4961  1.0000  -2.1767   0.0000   0.3776
   6.000   1.6823   0.02345   0.01484  -0.2249  0.4777  1.0000  -2.2692   0.0000   0.3715
   6.500   1.7193   0.02433   0.01569  -0.2212  0.4587  1.0000  -2.3651   0.0000   0.3656
   7.000   1.7525   0.02524   0.01660  -0.2169  0.4395  1.0000  -2.4574   0.0000   0.3598
   7.500   1.7808   0.02620   0.01756  -0.2117  0.4200  1.0000  -2.5473   0.0000   0.3540
   8.000   1.8072   0.02730   0.01868  -0.2064  0.4007  1.0000  -2.6381   0.0000   0.3483
   8.500   1.8316   0.02856   0.01995  -0.2009  0.3814  1.0000  -2.7265   0.0000   0.3428
   9.000   1.8545   0.02998   0.02140  -0.1954  0.3625  1.0000  -2.8136   0.0000   0.3375
   9.500   1.8773   0.03163   0.02307  -0.1902  0.3445  1.0000  -2.9081   0.0000   0.3324
  10.000   1.8987   0.03348   0.02498  -0.1850  0.3275  1.0000  -3.0058   0.0000   0.3276
  10.500   1.9203   0.03553   0.02711  -0.1802  0.3119  1.0000  -3.1033   0.0000   0.3229
  11.000   1.9431   0.03777   0.02943  -0.1758  0.2978  1.0000  -3.2024   0.0000   0.3185
  11.500   1.9681   0.04004   0.03173  -0.1720  0.2847  1.0000  -3.3154   0.0000   0.3143
  12.000   1.9885   0.04255   0.03438  -0.1677  0.2728  1.0000  -3.4270   0.0000   0.3102
  12.500   2.0019   0.04566   0.03775  -0.1631  0.2617  1.0000  -3.5263   0.0000   0.3061
  13.000   2.0286   0.04832   0.04046  -0.1602  0.2512  1.0000  -3.6593   0.0000   0.3025
  13.500   2.0334   0.05200   0.04445  -0.1552  0.2416  1.0000  -3.7627   0.0000   0.2987
  14.000   2.0500   0.05555   0.04820  -0.1519  0.2328  1.0000  -3.9081   0.0000   0.2953
  14.500   2.0544   0.05967   0.05261  -0.1478  0.2242  1.0000  -4.0288   0.0000   0.2919
  15.000   2.0601   0.06422   0.05743  -0.1445  0.2161  1.0000  -4.1518   0.0000   0.2888
  15.500   2.0537   0.06960   0.06314  -0.1409  0.2083  1.0000  -4.2665   0.0000   0.2860
  16.000   2.0600   0.07452   0.06829  -0.1386  0.2008  1.0000  -4.4189   0.0000   0.2834
  16.500   2.0304   0.08291   0.07715  -0.1361  0.1940  1.0000  -4.5007   0.0000   0.2817
  17.000   2.0492   0.08651   0.08082  -0.1348  0.1860  1.0000  -4.9206   0.0000   0.2791


