XFLR5 v6.09.06

 Calculated polar for: MIN ponta2016

 1 1 Reynolds number fixed          Mach number fixed         

 xtrf =   1.000 (top)        1.000 (bottom)
 Mach =   0.080     Re =     0.360 e 6     Ncrit =   9.000

  alpha     CL        CD       CDp       Cm    Top Xtr Bot Xtr   Cpmin    Chinge    XCp    
 ------- -------- --------- --------- -------- ------- ------- -------- --------- ---------
 -10.000  -0.0544   0.12892   0.12613  -0.0682  0.9652  0.0176  -1.1789   0.0000  -1.1136
  -9.500  -0.0264   0.12283   0.12006  -0.0727  0.9578  0.0180  -1.1140   0.0000  -2.7197
  -9.000   0.0096   0.11623   0.11345  -0.0795  0.9537  0.0187  -1.0565   0.0000   9.0990
  -8.000   0.0700   0.10394   0.10117  -0.0907  0.9412  0.0203  -1.1098   0.0000   1.6230
  -7.500   0.0876   0.09886   0.09611  -0.0961  0.9303  0.0205  -1.2792   0.0000   1.4057
  -7.000   0.1310   0.09162   0.08889  -0.1009  0.9273  0.0209  -1.1356   0.0000   1.0573
  -6.500   0.1527   0.08686   0.08415  -0.1022  0.9160  0.0216  -1.0775   0.0000   0.9488
  -6.000   0.1872   0.08111   0.07841  -0.1075  0.9096  0.0228  -1.0624   0.0000   0.8472
  -5.500   0.2108   0.07510   0.07241  -0.1144  0.8970  0.0242  -1.2595   0.0000   0.8115
  -5.000   0.2347   0.06940   0.06673  -0.1154  0.8832  0.0247  -1.2245   0.0000   0.7566
  -3.500   0.3700   0.05146   0.04872  -0.1361  0.8375  0.0303  -1.1731   0.0000   0.6244
  -2.500   0.7740   0.01373   0.00838  -0.2346  0.8155  0.0249  -2.1262   0.0000   0.5557
  -2.000   0.8688   0.01199   0.00606  -0.2422  0.7829  0.0288  -1.8863   0.0000   0.5303
  -1.500   0.9465   0.01137   0.00515  -0.2464  0.7444  0.0422  -1.5941   0.0000   0.5110
  -1.000   1.0041   0.01123   0.00479  -0.2464  0.7066  0.0667  -1.3073   0.0000   0.4951
  -0.500   1.0513   0.01128   0.00470  -0.2442  0.6667  0.1117  -1.2069   0.0000   0.4811
   0.000   1.0938   0.01163   0.00487  -0.2411  0.6290  0.1672  -1.2647   0.0000   0.4683
   0.500   1.1381   0.01206   0.00510  -0.2384  0.5977  0.2050  -1.3283   0.0000   0.4565
   1.000   1.1853   0.01248   0.00539  -0.2364  0.5728  0.2421  -1.3989   0.0000   0.4457
   1.500   1.2342   0.01288   0.00571  -0.2348  0.5524  0.2813  -1.4721   0.0000   0.4356
   2.000   1.2834   0.01325   0.00606  -0.2333  0.5347  0.3294  -1.5504   0.0000   0.4263
   2.500   1.3317   0.01362   0.00648  -0.2316  0.5178  0.3963  -1.6289   0.0000   0.4177
   3.000   1.3799   0.01397   0.00693  -0.2301  0.5027  0.4826  -1.7099   0.0000   0.4096
   4.000   1.4676   0.01433   0.00778  -0.2250  0.4736  1.0000  -1.8807   0.0000   0.3945
   4.500   1.5121   0.01487   0.00824  -0.2227  0.4595  1.0000  -1.9697   0.0000   0.3876
   5.000   1.5544   0.01549   0.00878  -0.2200  0.4448  1.0000  -2.0576   0.0000   0.3810
   5.500   1.5951   0.01616   0.00936  -0.2171  0.4295  1.0000  -2.1499   0.0000   0.3747
   6.000   1.6340   0.01689   0.01003  -0.2139  0.4130  1.0000  -2.2418   0.0000   0.3686
   6.500   1.6718   0.01763   0.01075  -0.2106  0.3964  1.0000  -2.3369   0.0000   0.3628
   7.000   1.7084   0.01848   0.01158  -0.2072  0.3787  1.0000  -2.4338   0.0000   0.3571
   7.500   1.7414   0.01951   0.01257  -0.2033  0.3593  1.0000  -2.5283   0.0000   0.3516
   8.000   1.7732   0.02068   0.01371  -0.1993  0.3392  1.0000  -2.6272   0.0000   0.3463
   8.500   1.8036   0.02198   0.01499  -0.1953  0.3186  1.0000  -2.7249   0.0000   0.3412
   9.000   1.8312   0.02350   0.01650  -0.1910  0.2986  1.0000  -2.8194   0.0000   0.3363
   9.500   1.8573   0.02522   0.01820  -0.1867  0.2812  1.0000  -2.9165   0.0000   0.3315
  10.000   1.8813   0.02715   0.02013  -0.1823  0.2655  1.0000  -3.0202   0.0000   0.3268
  10.500   1.9023   0.02936   0.02234  -0.1778  0.2520  1.0000  -3.1199   0.0000   0.3223
  11.000   1.9246   0.03157   0.02463  -0.1737  0.2403  1.0000  -3.2220   0.0000   0.3180
  11.500   1.9455   0.03399   0.02715  -0.1697  0.2297  1.0000  -3.3232   0.0000   0.3139
  12.000   1.9595   0.03710   0.03027  -0.1654  0.2196  1.0000  -3.4266   0.0000   0.3099
  12.500   1.9803   0.03974   0.03312  -0.1620  0.2111  1.0000  -3.5423   0.0000   0.3062
  13.000   1.9917   0.04341   0.03682  -0.1582  0.2030  1.0000  -3.6457   0.0000   0.3026
  13.500   2.0086   0.04669   0.04035  -0.1553  0.1958  1.0000  -3.7659   0.0000   0.2993
  14.000   2.0160   0.05110   0.04479  -0.1520  0.1877  1.0000  -3.8897   0.0000   0.2962
  14.500   2.0290   0.05511   0.04909  -0.1497  0.1814  1.0000  -4.0325   0.0000   0.2932
  15.000   2.0345   0.06010   0.05419  -0.1473  0.1747  1.0000  -4.1582   0.0000   0.2906
  15.500   2.0408   0.06523   0.05953  -0.1455  0.1681  1.0000  -4.2993   0.0000   0.2881
  16.000   2.0432   0.07102   0.06552  -0.1441  0.1614  1.0000  -4.4426   0.0000   0.2860
  16.500   2.0434   0.07723   0.07188  -0.1430  0.1550  1.0000  -4.6825   0.0000   0.2840
  17.000   2.0425   0.08393   0.07884  -0.1427  0.1486  1.0000  -4.9913   0.0000   0.2825


