XFLR5 v6.09.06

 Calculated polar for: MIN ponta2016

 1 1 Reynolds number fixed          Mach number fixed         

 xtrf =   1.000 (top)        1.000 (bottom)
 Mach =   0.000     Re =     0.480 e 6     Ncrit =   9.000

  alpha     CL        CD       CDp       Cm    Top Xtr Bot Xtr   Cpmin    Chinge    XCp    
 ------- -------- --------- --------- -------- ------- ------- -------- --------- ---------
 -10.000  -0.0102   0.12299   0.12050  -0.0798  0.9595  0.0149  -1.1431   0.0000  -8.1749
  -9.500   0.0210   0.11669   0.11420  -0.0853  0.9551  0.0153  -1.0922   0.0000   4.6025
  -9.000   0.0599   0.10986   0.10735  -0.0929  0.9528  0.0159  -1.0426   0.0000   1.9040
  -8.500   0.0783   0.10464   0.10216  -0.0948  0.9444  0.0165  -1.0620   0.0000   1.5359
  -8.000   0.1133   0.09800   0.09551  -0.1032  0.9409  0.0169  -1.1979   0.0000   1.2105
  -7.500   0.1280   0.09299   0.09053  -0.1066  0.9307  0.0170  -1.3378   0.0000   1.1248
  -7.000   0.1693   0.08638   0.08393  -0.1106  0.9279  0.0174  -1.1646   0.0000   0.9333
  -6.000   0.2283   0.07598   0.07356  -0.1177  0.9131  0.0189  -1.0733   0.0000   0.7852
  -5.500   0.2422   0.07117   0.06878  -0.1183  0.8996  0.0200  -1.1326   0.0000   0.7553
  -4.000   0.3558   0.05362   0.05117  -0.1365  0.8530  0.0234  -1.1764   0.0000   0.6417
  -3.500   0.4327   0.04575   0.04319  -0.1525  0.8324  0.0256  -1.2374   0.0000   0.6084
  -3.000   0.7304   0.01330   0.00853  -0.2362  0.8248  0.0204  -2.4796   0.0000   0.5771
  -2.500   0.8262   0.01100   0.00557  -0.2447  0.7900  0.0214  -2.1408   0.0000   0.5488
  -2.000   0.8970   0.01043   0.00461  -0.2475  0.7499  0.0257  -1.8825   0.0000   0.5275
  -1.500   0.9520   0.01030   0.00422  -0.2470  0.7137  0.0379  -1.6225   0.0000   0.5101
  -1.000   0.9980   0.01030   0.00404  -0.2447  0.6745  0.0583  -1.3367   0.0000   0.4948
  -0.500   1.0401   0.01046   0.00403  -0.2416  0.6318  0.0971  -1.1968   0.0000   0.4810
   0.000   1.0837   0.01082   0.00425  -0.2388  0.5963  0.1523  -1.2551   0.0000   0.4682
   0.500   1.1291   0.01128   0.00453  -0.2365  0.5688  0.1889  -1.3192   0.0000   0.4564
   1.000   1.1772   0.01165   0.00481  -0.2347  0.5477  0.2226  -1.3902   0.0000   0.4456
   1.500   1.2261   0.01198   0.00510  -0.2332  0.5298  0.2595  -1.4633   0.0000   0.4356
   2.000   1.2748   0.01229   0.00541  -0.2316  0.5131  0.3039  -1.5410   0.0000   0.4262
   2.500   1.3234   0.01260   0.00577  -0.2301  0.4979  0.3652  -1.6195   0.0000   0.4176
   3.000   1.3717   0.01295   0.00618  -0.2286  0.4843  0.4373  -1.7001   0.0000   0.4095
   3.500   1.4192   0.01324   0.00669  -0.2270  0.4695  0.5819  -1.7868   0.0000   0.4020
   4.000   1.4615   0.01315   0.00705  -0.2242  0.4564  1.0000  -1.8725   0.0000   0.3946
   4.500   1.5063   0.01366   0.00748  -0.2220  0.4425  1.0000  -1.9616   0.0000   0.3877
   5.000   1.5496   0.01424   0.00797  -0.2196  0.4279  1.0000  -2.0502   0.0000   0.3812
   5.500   1.5912   0.01489   0.00852  -0.2169  0.4123  1.0000  -2.1431   0.0000   0.3749
   6.000   1.6326   0.01550   0.00911  -0.2143  0.3966  1.0000  -2.2373   0.0000   0.3690
   6.500   1.6731   0.01619   0.00976  -0.2116  0.3801  1.0000  -2.3356   0.0000   0.3632
   7.000   1.7108   0.01702   0.01054  -0.2085  0.3614  1.0000  -2.4337   0.0000   0.3577
   7.500   1.7462   0.01799   0.01145  -0.2050  0.3417  1.0000  -2.5316   0.0000   0.3523
   8.000   1.7803   0.01908   0.01248  -0.2015  0.3210  1.0000  -2.6333   0.0000   0.3471
   8.500   1.8124   0.02030   0.01366  -0.1978  0.3001  1.0000  -2.7332   0.0000   0.3421
   9.000   1.8426   0.02169   0.01501  -0.1940  0.2812  1.0000  -2.8311   0.0000   0.3372
   9.500   1.8708   0.02324   0.01653  -0.1899  0.2641  1.0000  -2.9336   0.0000   0.3325
  10.000   1.8966   0.02498   0.01827  -0.1858  0.2497  1.0000  -3.0405   0.0000   0.3279
  10.500   1.9192   0.02700   0.02028  -0.1814  0.2369  1.0000  -3.1429   0.0000   0.3234
  11.000   1.9455   0.02882   0.02219  -0.1777  0.2262  1.0000  -3.2517   0.0000   0.3191
  11.500   1.9667   0.03108   0.02453  -0.1736  0.2162  1.0000  -3.3577   0.0000   0.3150
  12.000   1.9860   0.03359   0.02710  -0.1696  0.2070  1.0000  -3.4713   0.0000   0.3110
  12.500   2.0053   0.03623   0.02987  -0.1659  0.1994  1.0000  -3.5849   0.0000   0.3072
  13.000   2.0209   0.03930   0.03304  -0.1623  0.1916  1.0000  -3.7002   0.0000   0.3035
  13.500   2.0349   0.04269   0.03657  -0.1589  0.1842  1.0000  -3.8226   0.0000   0.3001
  14.000   2.0484   0.04631   0.04033  -0.1558  0.1773  1.0000  -3.9672   0.0000   0.2969
  14.500   2.0544   0.05091   0.04504  -0.1528  0.1708  1.0000  -4.0942   0.0000   0.2939
  15.000   2.0669   0.05501   0.04934  -0.1506  0.1643  1.0000  -4.2393   0.0000   0.2911
  15.500   2.0646   0.06100   0.05540  -0.1482  0.1571  1.0000  -4.3693   0.0000   0.2886
  16.000   2.0748   0.06574   0.06041  -0.1468  0.1516  1.0000  -4.5817   0.0000   0.2863
  16.500   2.0723   0.07230   0.06710  -0.1456  0.1452  1.0000  -4.8797   0.0000   0.2844
  17.000   2.0719   0.07877   0.07379  -0.1448  0.1399  1.0000  -5.1957   0.0000   0.2826


