XFLR5 v6.09.06

 Calculated polar for: MIN ponta2016

 1 1 Reynolds number fixed          Mach number fixed         

 xtrf =   1.000 (top)        1.000 (bottom)
 Mach =   0.080     Re =     0.500 e 6     Ncrit =   9.000

  alpha     CL        CD       CDp       Cm    Top Xtr Bot Xtr   Cpmin    Chinge    XCp    
 ------- -------- --------- --------- -------- ------- ------- -------- --------- ---------
 -10.000  -0.0030   0.12207   0.11961  -0.0819  0.9582  0.0145  -1.1670   0.0000  -29.4857
  -9.500   0.0304   0.11572   0.11326  -0.0879  0.9547  0.0149  -1.0999   0.0000   3.3511
  -9.000   0.0699   0.10896   0.10649  -0.0955  0.9527  0.0154  -1.0383   0.0000   1.7061
  -8.500   0.0872   0.10395   0.10150  -0.0969  0.9441  0.0159  -1.0409   0.0000   1.4288
  -8.000   0.1240   0.09738   0.09493  -0.1040  0.9410  0.0167  -1.0795   0.0000   1.1343
  -7.500   0.1401   0.09224   0.08981  -0.1073  0.9312  0.0170  -1.2342   0.0000   1.0544
  -6.000   0.2365   0.07523   0.07285  -0.1197  0.9130  0.0183  -1.0849   0.0000   0.7752
  -5.500   0.2498   0.07083   0.06847  -0.1194  0.8997  0.0191  -1.0922   0.0000   0.7443
  -3.000   0.6945   0.01850   0.01498  -0.2260  0.8131  0.0259  -2.0541   0.0000   0.5791
  -2.000   0.9002   0.01038   0.00453  -0.2482  0.7413  0.0249  -1.9030   0.0000   0.5273
  -1.500   0.9523   0.01023   0.00416  -0.2471  0.7051  0.0358  -1.6461   0.0000   0.5100
  -1.000   0.9970   0.01027   0.00400  -0.2444  0.6649  0.0553  -1.3617   0.0000   0.4948
  -0.500   1.0395   0.01046   0.00403  -0.2414  0.6230  0.0916  -1.1997   0.0000   0.4809
   0.000   1.0843   0.01082   0.00425  -0.2388  0.5886  0.1478  -1.2588   0.0000   0.4681
   0.500   1.1310   0.01123   0.00452  -0.2367  0.5632  0.1860  -1.3240   0.0000   0.4563
   1.000   1.1797   0.01157   0.00479  -0.2350  0.5428  0.2185  -1.3958   0.0000   0.4454
   1.500   1.2286   0.01193   0.00509  -0.2334  0.5253  0.2548  -1.4692   0.0000   0.4353
   2.500   1.3262   0.01256   0.00576  -0.2303  0.4936  0.3579  -1.6264   0.0000   0.4173
   3.000   1.3751   0.01288   0.00616  -0.2288  0.4800  0.4286  -1.7078   0.0000   0.4093
   3.500   1.4228   0.01319   0.00664  -0.2272  0.4658  0.5456  -1.7952   0.0000   0.4017
   4.000   1.4646   0.01313   0.00708  -0.2243  0.4524  1.0000  -1.8809   0.0000   0.3943
   4.500   1.5102   0.01361   0.00749  -0.2222  0.4382  1.0000  -1.9713   0.0000   0.3874
   5.000   1.5543   0.01417   0.00798  -0.2199  0.4237  1.0000  -2.0613   0.0000   0.3809
   5.500   1.5965   0.01479   0.00852  -0.2172  0.4083  1.0000  -2.1553   0.0000   0.3746
   6.000   1.6372   0.01549   0.00915  -0.2144  0.3925  1.0000  -2.2493   0.0000   0.3686
   6.500   1.6771   0.01623   0.00984  -0.2115  0.3754  1.0000  -2.3474   0.0000   0.3629
   7.000   1.7152   0.01707   0.01063  -0.2084  0.3565  1.0000  -2.4466   0.0000   0.3573
   7.500   1.7520   0.01800   0.01151  -0.2052  0.3365  1.0000  -2.5467   0.0000   0.3520
   8.000   1.7863   0.01910   0.01256  -0.2016  0.3152  1.0000  -2.6494   0.0000   0.3468
   8.500   1.8180   0.02038   0.01378  -0.1978  0.2942  1.0000  -2.7495   0.0000   0.3417
   9.000   1.8475   0.02183   0.01519  -0.1938  0.2758  1.0000  -2.8473   0.0000   0.3368
   9.500   1.8758   0.02341   0.01674  -0.1898  0.2592  1.0000  -2.9502   0.0000   0.3321
  10.000   1.9030   0.02510   0.01846  -0.1857  0.2454  1.0000  -3.0599   0.0000   0.3275
  10.500   1.9269   0.02705   0.02043  -0.1815  0.2336  1.0000  -3.1652   0.0000   0.3230
  11.000   1.9493   0.02919   0.02260  -0.1773  0.2224  1.0000  -3.2689   0.0000   0.3187
  11.500   1.9733   0.03129   0.02481  -0.1735  0.2129  1.0000  -3.3799   0.0000   0.3146
  12.000   1.9878   0.03424   0.02778  -0.1690  0.2034  1.0000  -3.4856   0.0000   0.3105
  12.500   2.0117   0.03655   0.03027  -0.1658  0.1965  1.0000  -3.6088   0.0000   0.3068
  13.000   2.0227   0.04013   0.03390  -0.1617  0.1884  1.0000  -3.7153   0.0000   0.3031
  13.500   2.0420   0.04310   0.03706  -0.1587  0.1816  1.0000  -3.8479   0.0000   0.2997
  14.000   2.0506   0.04729   0.04134  -0.1554  0.1746  1.0000  -3.9823   0.0000   0.2965
  14.500   2.0620   0.05142   0.04566  -0.1527  0.1685  1.0000  -4.1236   0.0000   0.2935
  15.000   2.0700   0.05609   0.05048  -0.1504  0.1617  1.0000  -4.2582   0.0000   0.2908
  15.500   2.0716   0.06173   0.05628  -0.1482  0.1554  1.0000  -4.3989   0.0000   0.2883
  16.000   2.0784   0.06699   0.06174  -0.1468  0.1491  1.0000  -4.5812   0.0000   0.2860
  16.500   2.0705   0.07435   0.06919  -0.1456  0.1426  1.0000  -4.8517   0.0000   0.2843
  17.000   2.0757   0.08020   0.07533  -0.1451  0.1377  1.0000  -5.2043   0.0000   0.2825


