XFLR5 v6.09.06

 Calculated polar for: MIN ponta2016

 1 1 Reynolds number fixed          Mach number fixed         

 xtrf =   1.000 (top)        1.000 (bottom)
 Mach =   0.000     Re =     0.160 e 6     Ncrit =   9.000

  alpha     CL        CD       CDp       Cm    Top Xtr Bot Xtr   Cpmin    Chinge    XCp    
 ------- -------- --------- --------- -------- ------- ------- -------- --------- ---------
 -10.000  -0.2361   0.15064   0.14701  -0.0203  0.9976  0.0298  -1.2073   0.0000   0.1448
  -9.500  -0.1931   0.14342   0.13976  -0.0298  0.9885  0.0311  -1.1508   0.0000   0.0721
  -9.000  -0.1560   0.13673   0.13305  -0.0381  0.9787  0.0325  -1.1239   0.0000  -0.0235
  -8.500  -0.1261   0.13150   0.12782  -0.0472  0.9674  0.0334  -1.1800   0.0000  -0.1600
  -8.000  -0.0924   0.12408   0.12042  -0.0524  0.9574  0.0340  -1.1401   0.0000  -0.3654
  -7.500  -0.0583   0.11769   0.11404  -0.0574  0.9473  0.0353  -1.0747   0.0000  -0.8087
  -7.000  -0.0220   0.11150   0.10785  -0.0645  0.9383  0.0374  -1.0697   0.0000  -2.8762
  -6.500  -0.0091   0.10775   0.10413  -0.0692  0.9209  0.0388  -1.1853   0.0000  -7.8217
  -6.000   0.0307   0.10021   0.09661  -0.0745  0.9125  0.0399  -1.1352   0.0000   2.8010
  -5.500   0.0545   0.09503   0.09145  -0.0764  0.8980  0.0419  -1.0905   0.0000   1.7149
  -5.000   0.0813   0.08986   0.08630  -0.0833  0.8816  0.0450  -1.1731   0.0000   1.3139
  -3.500   0.2031   0.07006   0.06652  -0.1021  0.8356  0.0544  -1.1585   0.0000   0.7637
  -3.000   0.2906   0.06143   0.05780  -0.1182  0.8305  0.0637  -1.1178   0.0000   0.6633
  -2.500   0.3829   0.05330   0.04955  -0.1365  0.8163  0.0734  -1.1086   0.0000   0.6106
  -2.000   0.5058   0.04427   0.04035  -0.1571  0.8126  0.0867  -0.9665   0.0000   0.5628
  -1.500   0.6823   0.03119   0.02672  -0.1923  0.7999  0.0763  -1.0189   0.0000   0.5325
  -1.000   0.9092   0.01750   0.01061  -0.2308  0.7950  0.0783  -1.3736   0.0000   0.5037
  -0.500   1.0043   0.01615   0.00897  -0.2377  0.7651  0.1312  -1.1659   0.0000   0.4856
   0.500   1.1536   0.01605   0.00846  -0.2441  0.7010  0.2737  -1.3304   0.0000   0.4589
   1.000   1.2033   0.01636   0.00865  -0.2425  0.6703  0.3206  -1.4019   0.0000   0.4479
   1.500   1.2584   0.01664   0.00874  -0.2419  0.6439  0.3733  -1.4799   0.0000   0.4378
   2.000   1.3087   0.01696   0.00903  -0.2405  0.6193  0.4423  -1.5581   0.0000   0.4286
   2.500   1.3589   0.01719   0.00940  -0.2392  0.5973  0.5644  -1.6372   0.0000   0.4199
   3.000   1.4032   0.01724   0.00968  -0.2365  0.5776  1.0000  -1.7150   0.0000   0.4116
   3.500   1.4530   0.01801   0.01018  -0.2351  0.5584  1.0000  -1.8031   0.0000   0.4041
   4.000   1.5012   0.01879   0.01075  -0.2335  0.5399  1.0000  -1.8938   0.0000   0.3970
   4.500   1.5488   0.01958   0.01139  -0.2319  0.5226  1.0000  -1.9851   0.0000   0.3902
   5.000   1.5944   0.02037   0.01206  -0.2298  0.5051  1.0000  -2.0770   0.0000   0.3838
   5.500   1.6387   0.02117   0.01273  -0.2276  0.4877  1.0000  -2.1730   0.0000   0.3776
   6.000   1.6781   0.02194   0.01348  -0.2244  0.4699  1.0000  -2.2646   0.0000   0.3716
   6.500   1.7123   0.02273   0.01425  -0.2203  0.4516  1.0000  -2.3571   0.0000   0.3656
   7.000   1.7425   0.02357   0.01511  -0.2154  0.4332  1.0000  -2.4455   0.0000   0.3596
   7.500   1.7706   0.02451   0.01604  -0.2103  0.4142  1.0000  -2.5348   0.0000   0.3539
   8.000   1.7978   0.02559   0.01713  -0.2053  0.3952  1.0000  -2.6265   0.0000   0.3483
   8.500   1.8233   0.02683   0.01834  -0.2001  0.3759  1.0000  -2.7164   0.0000   0.3429
   9.000   1.8447   0.02827   0.01984  -0.1945  0.3566  1.0000  -2.8007   0.0000   0.3376
   9.500   1.8671   0.02990   0.02150  -0.1893  0.3384  1.0000  -2.8943   0.0000   0.3325
  10.000   1.8890   0.03172   0.02334  -0.1843  0.3211  1.0000  -2.9928   0.0000   0.3277
  10.500   1.9123   0.03369   0.02533  -0.1799  0.3054  1.0000  -3.0933   0.0000   0.3231
  11.000   1.9297   0.03594   0.02776  -0.1748  0.2910  1.0000  -3.1840   0.0000   0.3186
  11.500   1.9494   0.03837   0.03032  -0.1704  0.2778  1.0000  -3.2852   0.0000   0.3143
  12.000   1.9735   0.04083   0.03284  -0.1668  0.2663  1.0000  -3.4025   0.0000   0.3103
  12.500   1.9949   0.04338   0.03546  -0.1632  0.2550  1.0000  -3.5181   0.0000   0.3065
  13.000   2.0064   0.04663   0.03901  -0.1587  0.2449  1.0000  -3.6202   0.0000   0.3026
  13.500   2.0329   0.04931   0.04170  -0.1561  0.2351  1.0000  -3.7672   0.0000   0.2991
  14.000   2.0352   0.05331   0.04608  -0.1515  0.2267  1.0000  -3.8806   0.0000   0.2956
  14.500   2.0576   0.05642   0.04927  -0.1490  0.2180  1.0000  -4.0447   0.0000   0.2923
  15.000   2.0511   0.06145   0.05470  -0.1447  0.2101  1.0000  -4.1380   0.0000   0.2892
  15.500   2.0719   0.06481   0.05814  -0.1427  0.2020  1.0000  -4.3314   0.0000   0.2862
  16.000   2.0542   0.07146   0.06527  -0.1392  0.1952  1.0000  -4.4136   0.0000   0.2838
  16.500   2.0786   0.07445   0.06825  -0.1377  0.1869  1.0000  -4.8324   0.0000   0.2810
  17.000   2.0424   0.08373   0.07811  -0.1356  0.1809  1.0000  -4.9273   0.0000   0.2797


