XFLR5 v6.09.06

 Calculated polar for: MIN ponta2016

 1 1 Reynolds number fixed          Mach number fixed         

 xtrf =   1.000 (top)        1.000 (bottom)
 Mach =   0.000     Re =     0.460 e 6     Ncrit =   9.000

  alpha     CL        CD       CDp       Cm    Top Xtr Bot Xtr   Cpmin    Chinge    XCp    
 ------- -------- --------- --------- -------- ------- ------- -------- --------- ---------
 -10.000  -0.0106   0.12357   0.12103  -0.0796  0.9622  0.0154  -1.1252   0.0000  -7.8270
  -9.500   0.0137   0.11765   0.11511  -0.0833  0.9553  0.0159  -1.0914   0.0000   6.7697
  -9.000   0.0523   0.11070   0.10816  -0.0911  0.9529  0.0166  -1.0649   0.0000   2.1093
  -8.500   0.0702   0.10537   0.10284  -0.0941  0.9442  0.0169  -1.1643   0.0000   1.6739
  -8.000   0.1033   0.09893   0.09640  -0.1032  0.9405  0.0170  -1.3144   0.0000   1.3038
  -7.500   0.2307   0.06740   0.06506  -0.1105  0.9158  0.0187  -0.8088   0.0000   0.7461
  -7.000   0.2616   0.06027   0.05793  -0.1160  0.9129  0.0199  -0.8335   0.0000   0.7079
  -6.500   0.1851   0.08275   0.08029  -0.1100  0.9176  0.0185  -1.0702   0.0000   0.8697
  -6.000   0.2228   0.07660   0.07414  -0.1165  0.9129  0.0197  -1.0852   0.0000   0.7931
  -5.500   0.2396   0.07039   0.06795  -0.1226  0.8981  0.0205  -1.3644   0.0000   0.7786
  -5.000   0.2635   0.06547   0.06304  -0.1220  0.8852  0.0209  -1.2390   0.0000   0.7266
  -3.500   0.4201   0.04697   0.04439  -0.1487  0.8336  0.0261  -1.2007   0.0000   0.6102
  -2.000   0.8958   0.01060   0.00476  -0.2473  0.7557  0.0263  -1.8721   0.0000   0.5277
  -1.500   0.9527   0.01046   0.00433  -0.2472  0.7188  0.0388  -1.6135   0.0000   0.5101
  -1.000   0.9993   0.01043   0.00413  -0.2450  0.6802  0.0597  -1.3289   0.0000   0.4948
  -0.500   1.0416   0.01055   0.00411  -0.2419  0.6379  0.0997  -1.1978   0.0000   0.4810
   0.000   1.0846   0.01091   0.00433  -0.2390  0.6016  0.1549  -1.2556   0.0000   0.4683
   0.500   1.1301   0.01135   0.00459  -0.2367  0.5731  0.1916  -1.3198   0.0000   0.4565
   1.000   1.1779   0.01174   0.00487  -0.2349  0.5515  0.2254  -1.3906   0.0000   0.4456
   1.500   1.2267   0.01207   0.00516  -0.2333  0.5333  0.2628  -1.4636   0.0000   0.4356
   2.000   1.2753   0.01240   0.00548  -0.2318  0.5165  0.3075  -1.5411   0.0000   0.4263
   2.500   1.3237   0.01274   0.00586  -0.2302  0.5010  0.3697  -1.6195   0.0000   0.4176
   3.000   1.3717   0.01311   0.00628  -0.2286  0.4871  0.4430  -1.6998   0.0000   0.4096
   3.500   1.4201   0.01328   0.00679  -0.2272  0.4724  0.6278  -1.7874   0.0000   0.4021
   4.000   1.4616   0.01329   0.00714  -0.2242  0.4592  1.0000  -1.8722   0.0000   0.3946
   4.500   1.5060   0.01383   0.00758  -0.2220  0.4454  1.0000  -1.9609   0.0000   0.3877
   5.000   1.5486   0.01444   0.00808  -0.2194  0.4305  1.0000  -2.0487   0.0000   0.3812
   5.500   1.5910   0.01502   0.00860  -0.2169  0.4150  1.0000  -2.1425   0.0000   0.3749
   6.000   1.6323   0.01565   0.00921  -0.2142  0.3993  1.0000  -2.2365   0.0000   0.3690
   6.500   1.6723   0.01635   0.00988  -0.2114  0.3829  1.0000  -2.3342   0.0000   0.3632
   7.000   1.7101   0.01718   0.01065  -0.2083  0.3644  1.0000  -2.4323   0.0000   0.3577
   7.500   1.7454   0.01814   0.01156  -0.2049  0.3446  1.0000  -2.5299   0.0000   0.3523
   8.000   1.7785   0.01927   0.01262  -0.2012  0.3240  1.0000  -2.6304   0.0000   0.3471
   8.500   1.8096   0.02055   0.01383  -0.1973  0.3032  1.0000  -2.7288   0.0000   0.3420
   9.000   1.8398   0.02193   0.01520  -0.1935  0.2842  1.0000  -2.8266   0.0000   0.3371
   9.500   1.8675   0.02351   0.01675  -0.1894  0.2669  1.0000  -2.9281   0.0000   0.3324
  10.000   1.8925   0.02531   0.01854  -0.1852  0.2520  1.0000  -3.0335   0.0000   0.3278
  10.500   1.9175   0.02717   0.02043  -0.1811  0.2395  1.0000  -3.1395   0.0000   0.3233
  11.000   1.9422   0.02911   0.02246  -0.1772  0.2285  1.0000  -3.2456   0.0000   0.3190
  11.500   1.9610   0.03157   0.02495  -0.1729  0.2182  1.0000  -3.3470   0.0000   0.3149
  12.000   1.9829   0.03389   0.02737  -0.1692  0.2091  1.0000  -3.4649   0.0000   0.3109
  12.500   1.9991   0.03680   0.03038  -0.1652  0.2012  1.0000  -3.5727   0.0000   0.3071
  13.000   2.0173   0.03967   0.03339  -0.1618  0.1936  1.0000  -3.6921   0.0000   0.3035
  13.500   2.0281   0.04339   0.03720  -0.1582  0.1859  1.0000  -3.8056   0.0000   0.3000
  14.000   2.0439   0.04679   0.04078  -0.1554  0.1791  1.0000  -3.9552   0.0000   0.2968
  14.500   2.0469   0.05174   0.04579  -0.1522  0.1719  1.0000  -4.0746   0.0000   0.2939
  15.000   2.0614   0.05563   0.04993  -0.1501  0.1660  1.0000  -4.2233   0.0000   0.2910
  15.500   2.0626   0.06122   0.05563  -0.1480  0.1592  1.0000  -4.3628   0.0000   0.2886
  16.000   2.0683   0.06652   0.06116  -0.1464  0.1532  1.0000  -4.5436   0.0000   0.2863
  16.500   2.0689   0.07268   0.06748  -0.1453  0.1468  1.0000  -4.8584   0.0000   0.2843
  17.000   2.0649   0.07962   0.07459  -0.1445  0.1412  1.0000  -5.1526   0.0000   0.2827


