XFLR5 v6.09.06

 Calculated polar for: MIN ponta2016

 1 1 Reynolds number fixed          Mach number fixed         

 xtrf =   1.000 (top)        1.000 (bottom)
 Mach =   0.080     Re =     0.300 e 6     Ncrit =   9.000

  alpha     CL        CD       CDp       Cm    Top Xtr Bot Xtr   Cpmin    Chinge    XCp    
 ------- -------- --------- --------- -------- ------- ------- -------- --------- ---------
 -10.000   0.0642   0.10812   0.10533  -0.0800  0.9417  0.0211  -0.8328   0.0000   1.5610
  -9.500   0.0951   0.10120   0.09840  -0.0856  0.9397  0.0219  -0.7724   0.0000   1.1936
  -9.000   0.1103   0.09570   0.09292  -0.0869  0.9295  0.0226  -0.7714   0.0000   1.0745
  -8.500   0.1400   0.08848   0.08570  -0.0927  0.9268  0.0237  -0.7964   0.0000   0.9404
  -8.000   0.0385   0.10790   0.10495  -0.0819  0.9420  0.0222  -1.0441   0.0000   2.5099
  -7.000   0.1011   0.09589   0.09295  -0.0953  0.9269  0.0242  -1.1859   0.0000   1.2399
  -6.500   0.1211   0.09024   0.08734  -0.0975  0.9145  0.0245  -1.2093   0.0000   1.0917
  -5.500   0.1834   0.07923   0.07636  -0.1039  0.8972  0.0269  -1.0726   0.0000   0.8376
  -5.000   0.2168   0.07238   0.06950  -0.1155  0.8814  0.0286  -1.3311   0.0000   0.7989
  -3.500   0.4144   0.02603   0.02315  -0.1380  0.8126  0.0396  -1.0749   0.0000   0.5867
  -3.000   0.4868   0.02029   0.01726  -0.1509  0.7910  0.0466  -0.9992   0.0000   0.5626
  -2.500   0.5962   0.01386   0.01054  -0.1734  0.7702  0.0547  -0.9326   0.0000   0.5424
  -2.000   0.8618   0.00100  -0.00494  -0.2335  0.7582  0.0361  -1.6149   0.0000   0.5219
  -1.500   0.9248   0.00083  -0.00542  -0.2349  0.7208  0.0541  -1.3773   0.0000   0.5040
  -1.000   0.9762   0.00080  -0.00563  -0.2339  0.6842  0.0837  -1.1013   0.0000   0.4888
  -0.500   1.0247   0.00080  -0.00570  -0.2324  0.6488  0.1417  -1.1403   0.0000   0.4751
   0.000   1.0709   0.00092  -0.00578  -0.2304  0.6188  0.1915  -1.2009   0.0000   0.4626
   0.500   1.1169   0.00106  -0.00580  -0.2284  0.5922  0.2309  -1.2694   0.0000   0.4512
   1.000   1.1647   0.00121  -0.00578  -0.2269  0.5705  0.2698  -1.3400   0.0000   0.4407
   1.500   1.2125   0.00136  -0.00567  -0.2254  0.5515  0.3113  -1.4143   0.0000   0.4310
   2.000   1.2593   0.00151  -0.00551  -0.2237  0.5343  0.3662  -1.4899   0.0000   0.4219
   2.500   1.3052   0.00166  -0.00528  -0.2219  0.5177  0.4360  -1.5656   0.0000   0.4135
   3.000   1.3528   0.00179  -0.00496  -0.2206  0.5025  0.5560  -1.6486   0.0000   0.4057
   4.000   1.4754   0.01516   0.00826  -0.2267  0.4868  1.0000  -1.8861   0.0000   0.3949
   4.500   1.5180   0.01573   0.00873  -0.2240  0.4717  1.0000  -1.9733   0.0000   0.3879
   5.000   1.5598   0.01631   0.00929  -0.2212  0.4566  1.0000  -2.0605   0.0000   0.3813
   5.500   1.5998   0.01697   0.00988  -0.2181  0.4410  1.0000  -2.1521   0.0000   0.3749
   6.000   1.6382   0.01769   0.01057  -0.2148  0.4250  1.0000  -2.2434   0.0000   0.3688
   6.500   1.6746   0.01848   0.01132  -0.2112  0.4080  1.0000  -2.3369   0.0000   0.3629
   7.000   1.7092   0.01937   0.01218  -0.2074  0.3907  1.0000  -2.4314   0.0000   0.3572
   7.500   1.7417   0.02037   0.01317  -0.2033  0.3717  1.0000  -2.5250   0.0000   0.3517
   8.000   1.7719   0.02153   0.01432  -0.1991  0.3514  1.0000  -2.6217   0.0000   0.3463
   8.500   1.8002   0.02289   0.01566  -0.1947  0.3312  1.0000  -2.7163   0.0000   0.3411
   9.000   1.8261   0.02447   0.01722  -0.1901  0.3113  1.0000  -2.8081   0.0000   0.3361
   9.500   1.8507   0.02624   0.01898  -0.1856  0.2932  1.0000  -2.9024   0.0000   0.3312
  10.000   1.8742   0.02819   0.02095  -0.1811  0.2772  1.0000  -3.0048   0.0000   0.3266
  10.500   1.8959   0.03036   0.02315  -0.1767  0.2630  1.0000  -3.1049   0.0000   0.3221
  11.000   1.9154   0.03282   0.02563  -0.1723  0.2509  1.0000  -3.2016   0.0000   0.3178
  11.500   1.9345   0.03537   0.02826  -0.1682  0.2396  1.0000  -3.2989   0.0000   0.3136
  12.000   1.9536   0.03808   0.03111  -0.1644  0.2295  1.0000  -3.4101   0.0000   0.3097
  12.500   1.9681   0.04136   0.03438  -0.1604  0.2197  1.0000  -3.5138   0.0000   0.3059
  13.000   1.9851   0.04443   0.03772  -0.1571  0.2117  1.0000  -3.6264   0.0000   0.3024
  13.500   1.9985   0.04814   0.04143  -0.1538  0.2033  1.0000  -3.7386   0.0000   0.2990
  14.000   2.0102   0.05201   0.04561  -0.1509  0.1962  1.0000  -3.8688   0.0000   0.2959
  14.500   2.0194   0.05636   0.05001  -0.1482  0.1884  1.0000  -4.0030   0.0000   0.2929
  15.000   2.0280   0.06098   0.05492  -0.1459  0.1820  1.0000  -4.1343   0.0000   0.2902
  15.500   2.0333   0.06610   0.06019  -0.1440  0.1752  1.0000  -4.2715   0.0000   0.2877
  16.000   2.0369   0.07161   0.06592  -0.1424  0.1684  1.0000  -4.4170   0.0000   0.2854
  16.500   2.0364   0.07786   0.07240  -0.1415  0.1616  1.0000  -4.6332   0.0000   0.2836
  17.000   2.0375   0.08400   0.07868  -0.1407  0.1551  1.0000  -4.9532   0.0000   0.2818


