XFLR5 v6.09.06

 Calculated polar for: MIN ponta2016

 1 1 Reynolds number fixed          Mach number fixed         

 xtrf =   1.000 (top)        1.000 (bottom)
 Mach =   0.080     Re =     0.340 e 6     Ncrit =   9.000

  alpha     CL        CD       CDp       Cm    Top Xtr Bot Xtr   Cpmin    Chinge    XCp    
 ------- -------- --------- --------- -------- ------- ------- -------- --------- ---------
 -10.000  -0.0653   0.13057   0.12774  -0.0648  0.9659  0.0183  -1.1417   0.0000  -0.8324
  -9.000   0.1204   0.09275   0.09009  -0.0924  0.9295  0.0206  -0.9288   0.0000   1.0519
  -8.500   0.1548   0.08546   0.08280  -0.0967  0.9271  0.0212  -0.8171   0.0000   0.9008
  -7.500   0.0833   0.09926   0.09646  -0.0915  0.9318  0.0209  -1.1321   0.0000   1.4095
  -7.000   0.1235   0.09305   0.09026  -0.0979  0.9274  0.0217  -1.0600   0.0000   1.0820
  -6.500   0.1451   0.08806   0.08529  -0.1001  0.9159  0.0227  -1.0543   0.0000   0.9707
  -6.000   0.1643   0.08298   0.08024  -0.1031  0.9037  0.0240  -1.1399   0.0000   0.9030
  -5.500   0.1859   0.07690   0.07418  -0.1088  0.8907  0.0245  -1.2912   0.0000   0.8556
  -5.000   0.2259   0.07114   0.06842  -0.1112  0.8834  0.0255  -1.1188   0.0000   0.7579
  -4.500   0.2577   0.06562   0.06291  -0.1154  0.8691  0.0273  -1.1123   0.0000   0.7096
  -2.500   0.7558   0.01497   0.00989  -0.2309  0.8178  0.0262  -2.0748   0.0000   0.5582
  -2.000   0.8596   0.01234   0.00644  -0.2405  0.7895  0.0294  -1.8847   0.0000   0.5314
  -1.500   0.9423   0.01164   0.00540  -0.2457  0.7515  0.0430  -1.5914   0.0000   0.5113
  -1.000   1.0041   0.01145   0.00497  -0.2465  0.7136  0.0686  -1.3004   0.0000   0.4952
  -0.500   1.0532   0.01147   0.00485  -0.2447  0.6742  0.1153  -1.2080   0.0000   0.4812
   0.000   1.0962   0.01181   0.00502  -0.2417  0.6364  0.1709  -1.2662   0.0000   0.4684
   0.500   1.1403   0.01227   0.00523  -0.2389  0.6045  0.2087  -1.3298   0.0000   0.4566
   1.000   1.1871   0.01267   0.00551  -0.2368  0.5787  0.2466  -1.4000   0.0000   0.4457
   1.500   1.2360   0.01306   0.00582  -0.2352  0.5577  0.2866  -1.4732   0.0000   0.4357
   2.000   1.2854   0.01344   0.00620  -0.2338  0.5396  0.3356  -1.5516   0.0000   0.4264
   2.500   1.3339   0.01384   0.00662  -0.2321  0.5226  0.4042  -1.6303   0.0000   0.4178
   3.000   1.3825   0.01421   0.00709  -0.2307  0.5068  0.4969  -1.7118   0.0000   0.4098
   4.000   1.4693   0.01455   0.00793  -0.2254  0.4776  1.0000  -1.8816   0.0000   0.3946
   4.500   1.5137   0.01513   0.00839  -0.2230  0.4634  1.0000  -1.9706   0.0000   0.3877
   5.000   1.5559   0.01578   0.00893  -0.2203  0.4486  1.0000  -2.0583   0.0000   0.3811
   5.500   1.5959   0.01642   0.00951  -0.2173  0.4329  1.0000  -2.1500   0.0000   0.3747
   6.000   1.6351   0.01709   0.01018  -0.2141  0.4166  1.0000  -2.2421   0.0000   0.3687
   6.500   1.6725   0.01786   0.01092  -0.2107  0.3998  1.0000  -2.3368   0.0000   0.3628
   7.000   1.7087   0.01872   0.01175  -0.2072  0.3823  1.0000  -2.4332   0.0000   0.3571
   7.500   1.7416   0.01974   0.01274  -0.2033  0.3630  1.0000  -2.5275   0.0000   0.3516
   8.000   1.7726   0.02092   0.01389  -0.1992  0.3429  1.0000  -2.6254   0.0000   0.3463
   8.500   1.8008   0.02233   0.01524  -0.1948  0.3226  1.0000  -2.7200   0.0000   0.3411
   9.000   1.8282   0.02387   0.01676  -0.1905  0.3028  1.0000  -2.8140   0.0000   0.3362
   9.500   1.8539   0.02560   0.01849  -0.1861  0.2851  1.0000  -2.9102   0.0000   0.3314
  10.000   1.8769   0.02760   0.02048  -0.1816  0.2693  1.0000  -3.0122   0.0000   0.3267
  10.500   1.8992   0.02972   0.02263  -0.1773  0.2553  1.0000  -3.1138   0.0000   0.3222
  11.000   1.9224   0.03188   0.02490  -0.1733  0.2435  1.0000  -3.2167   0.0000   0.3180
  11.500   1.9409   0.03450   0.02757  -0.1691  0.2329  1.0000  -3.3135   0.0000   0.3138
  12.000   1.9580   0.03733   0.03048  -0.1651  0.2229  1.0000  -3.4224   0.0000   0.3099
  12.500   1.9762   0.04024   0.03355  -0.1615  0.2140  1.0000  -3.5328   0.0000   0.3061
  13.000   1.9891   0.04374   0.03712  -0.1578  0.2058  1.0000  -3.6391   0.0000   0.3026
  13.500   2.0043   0.04722   0.04080  -0.1547  0.1984  1.0000  -3.7547   0.0000   0.2992
  14.000   2.0142   0.05135   0.04505  -0.1517  0.1906  1.0000  -3.8835   0.0000   0.2961
  14.500   2.0246   0.05563   0.04952  -0.1491  0.1837  1.0000  -4.0197   0.0000   0.2931
  15.000   2.0323   0.06037   0.05445  -0.1469  0.1770  1.0000  -4.1505   0.0000   0.2905
  15.500   2.0374   0.06559   0.05979  -0.1449  0.1702  1.0000  -4.2879   0.0000   0.2880
  16.000   2.0406   0.07128   0.06575  -0.1436  0.1636  1.0000  -4.4326   0.0000   0.2859
  16.500   2.0413   0.07732   0.07185  -0.1424  0.1566  1.0000  -4.6693   0.0000   0.2838
  17.000   2.0395   0.08415   0.07902  -0.1421  0.1507  1.0000  -4.9707   0.0000   0.2823


