XFLR5 v6.09.06

 Calculated polar for: MIN ponta2016

 1 1 Reynolds number fixed          Mach number fixed         

 xtrf =   1.000 (top)        1.000 (bottom)
 Mach =   0.000     Re =     0.140 e 6     Ncrit =   9.000

  alpha     CL        CD       CDp       Cm    Top Xtr Bot Xtr   Cpmin    Chinge    XCp    
 ------- -------- --------- --------- -------- ------- ------- -------- --------- ---------
  -9.000  -0.1965   0.14102   0.13720  -0.0280  0.9884  0.0350  -1.1470   0.0000   0.0855
  -8.500  -0.1571   0.13433   0.13051  -0.0363  0.9777  0.0366  -1.0918   0.0000  -0.0086
  -8.000  -0.1232   0.12836   0.12453  -0.0444  0.9661  0.0384  -1.1093   0.0000  -0.1453
  -7.500  -0.1027   0.12528   0.12147  -0.0545  0.9525  0.0390  -1.2700   0.0000  -0.3215
  -7.000  -0.0603   0.11579   0.11199  -0.0562  0.9422  0.0405  -1.0986   0.0000  -0.7484
  -6.500  -0.0303   0.11012   0.10633  -0.0611  0.9292  0.0427  -1.0796   0.0000  -1.8933
  -6.000  -0.0106   0.10598   0.10222  -0.0670  0.9138  0.0450  -1.1667   0.0000  -6.4184
  -5.500   0.0112   0.10016   0.09643  -0.0704  0.8985  0.0460  -1.1894   0.0000   6.8320
  -5.000   0.0430   0.09405   0.09034  -0.0726  0.8838  0.0486  -1.1088   0.0000   2.0096
  -4.500   0.0934   0.08824   0.08451  -0.0910  0.8653  0.0528  -1.2981   0.0000   1.2551
  -4.000   0.1165   0.08133   0.07764  -0.0858  0.8511  0.0549  -1.1440   0.0000   1.0079
  -3.500   0.1820   0.07400   0.07027  -0.1021  0.8348  0.0623  -1.2190   0.0000   0.8235
  -3.000   0.2303   0.06782   0.06408  -0.1051  0.8212  0.0698  -1.1031   0.0000   0.7148
  -2.500   0.3192   0.05915   0.05532  -0.1199  0.8147  0.0777  -1.0373   0.0000   0.6305
  -2.000   0.4146   0.05133   0.04738  -0.1365  0.8015  0.0892  -0.9683   0.0000   0.5818
  -1.500   0.5938   0.04022   0.03588  -0.1717  0.7978  0.1158  -0.9091   0.0000   0.5401
  -1.000   0.8678   0.02032   0.01342  -0.2242  0.7979  0.0770  -1.4009   0.0000   0.5083
  -0.500   0.9805   0.01793   0.01065  -0.2341  0.7781  0.1291  -1.1477   0.0000   0.4878
   0.500   1.1453   0.01723   0.00955  -0.2433  0.7181  0.2837  -1.3217   0.0000   0.4597
   1.000   1.1994   0.01747   0.00967  -0.2425  0.6874  0.3335  -1.3964   0.0000   0.4486
   1.500   1.2587   0.01769   0.00969  -0.2427  0.6614  0.3911  -1.4775   0.0000   0.4385
   2.000   1.3078   0.01797   0.00997  -0.2410  0.6356  0.4630  -1.5543   0.0000   0.4291
   2.500   1.3577   0.01805   0.01026  -0.2395  0.6133  0.6151  -1.6329   0.0000   0.4204
   3.000   1.4037   0.01823   0.01047  -0.2371  0.5927  1.0000  -1.7119   0.0000   0.4120
   3.500   1.4543   0.01902   0.01097  -0.2359  0.5728  1.0000  -1.8004   0.0000   0.4045
   4.000   1.5029   0.01984   0.01158  -0.2343  0.5534  1.0000  -1.8913   0.0000   0.3973
   4.500   1.5498   0.02069   0.01228  -0.2325  0.5348  1.0000  -1.9815   0.0000   0.3906
   5.000   1.5950   0.02156   0.01305  -0.2304  0.5166  1.0000  -2.0726   0.0000   0.3841
   5.500   1.6379   0.02241   0.01383  -0.2278  0.4983  1.0000  -2.1665   0.0000   0.3779
   6.000   1.6787   0.02328   0.01466  -0.2249  0.4800  1.0000  -2.2592   0.0000   0.3719
   6.500   1.7160   0.02415   0.01549  -0.2214  0.4612  1.0000  -2.3550   0.0000   0.3660
   7.000   1.7500   0.02504   0.01639  -0.2173  0.4420  1.0000  -2.4476   0.0000   0.3602
   7.500   1.7786   0.02598   0.01733  -0.2123  0.4226  1.0000  -2.5377   0.0000   0.3545
   8.000   1.8050   0.02705   0.01843  -0.2070  0.4032  1.0000  -2.6280   0.0000   0.3488
   8.500   1.8294   0.02827   0.01966  -0.2015  0.3839  1.0000  -2.7159   0.0000   0.3433
   9.000   1.8521   0.02966   0.02108  -0.1960  0.3648  1.0000  -2.8025   0.0000   0.3380
   9.500   1.8748   0.03125   0.02270  -0.1908  0.3468  1.0000  -2.8969   0.0000   0.3330
  10.000   1.8966   0.03304   0.02455  -0.1857  0.3297  1.0000  -2.9944   0.0000   0.3281
  10.500   1.9188   0.03503   0.02659  -0.1810  0.3139  1.0000  -3.0925   0.0000   0.3234
  11.000   1.9428   0.03715   0.02877  -0.1768  0.2997  1.0000  -3.1932   0.0000   0.3190
  11.500   1.9698   0.03930   0.03090  -0.1733  0.2862  1.0000  -3.3105   0.0000   0.3149
  12.000   1.9843   0.04194   0.03379  -0.1683  0.2744  1.0000  -3.4105   0.0000   0.3106
  12.500   2.0020   0.04482   0.03685  -0.1641  0.2632  1.0000  -3.5179   0.0000   0.3067
  13.000   2.0329   0.04722   0.03925  -0.1617  0.2522  1.0000  -3.6590   0.0000   0.3031
  13.500   2.0328   0.05103   0.04345  -0.1561  0.2428  1.0000  -3.7530   0.0000   0.2992
  14.000   2.0558   0.05412   0.04666  -0.1533  0.2338  1.0000  -3.9149   0.0000   0.2958
  14.500   2.0551   0.05844   0.05134  -0.1487  0.2253  1.0000  -4.0222   0.0000   0.2924
  15.000   2.0689   0.06230   0.05538  -0.1458  0.2169  1.0000  -4.1708   0.0000   0.2892
  15.500   2.0578   0.06787   0.06135  -0.1417  0.2092  1.0000  -4.2721   0.0000   0.2863
  16.000   2.0731   0.07187   0.06549  -0.1396  0.2014  1.0000  -4.4658   0.0000   0.2835
  16.500   2.0413   0.08015   0.07429  -0.1365  0.1948  1.0000  -4.5866   0.0000   0.2817
  17.000   2.0659   0.08306   0.07723  -0.1352  0.1864  1.0000  -5.0411   0.0000   0.2789


