XFLR5 v6.09.06

 Calculated polar for: MIN ponta2016

 1 1 Reynolds number fixed          Mach number fixed         

 xtrf =   1.000 (top)        1.000 (bottom)
 Mach =   0.000     Re =     0.220 e 6     Ncrit =   9.000

  alpha     CL        CD       CDp       Cm    Top Xtr Bot Xtr   Cpmin    Chinge    XCp    
 ------- -------- --------- --------- -------- ------- ------- -------- --------- ---------
 -10.000   0.0141   0.11660   0.11350  -0.0667  0.9442  0.0262  -0.8114   0.0000   5.2301
  -9.500   0.0433   0.10973   0.10661  -0.0724  0.9404  0.0273  -0.7816   0.0000   2.0068
  -9.000   0.0592   0.10413   0.10102  -0.0753  0.9303  0.0283  -0.8229   0.0000   1.5846
  -8.500  -0.0518   0.12135   0.11805  -0.0619  0.9555  0.0265  -1.0491   0.0000  -1.0414
  -8.000  -0.0218   0.11526   0.11197  -0.0675  0.9463  0.0278  -1.0629   0.0000  -3.0708
  -7.500   0.0119   0.10967   0.10637  -0.0782  0.9395  0.0286  -1.2171   0.0000   7.2020
  -7.000   0.0405   0.10279   0.09953  -0.0799  0.9283  0.0291  -1.1316   0.0000   2.3340
  -6.500   0.0676   0.09735   0.09410  -0.0826  0.9166  0.0303  -1.0714   0.0000   1.5344
  -5.500   0.1044   0.08784   0.08464  -0.0915  0.8869  0.0334  -1.2516   0.0000   1.1604
  -5.000   0.1515   0.08020   0.07701  -0.0958  0.8816  0.0346  -1.1305   0.0000   0.9044
  -4.500   0.1828   0.07462   0.07144  -0.0994  0.8667  0.0369  -1.1023   0.0000   0.8101
  -3.500   0.2928   0.06042   0.05719  -0.1198  0.8450  0.0442  -1.1447   0.0000   0.6672
  -3.000   0.3576   0.05354   0.05026  -0.1302  0.8319  0.0498  -1.1055   0.0000   0.6196
  -2.500   0.4465   0.04601   0.04262  -0.1463  0.8173  0.0580  -1.0568   0.0000   0.5810
  -2.000   0.7597   0.01839   0.01276  -0.2220  0.8179  0.0370  -1.7805   0.0000   0.5439
  -1.500   0.8685   0.01522   0.00885  -0.2322  0.7983  0.0478  -1.6097   0.0000   0.5181
  -1.000   0.9678   0.01372   0.00705  -0.2404  0.7670  0.0777  -1.3183   0.0000   0.4982
  -0.500   1.0463   0.01336   0.00647  -0.2446  0.7302  0.1359  -1.1979   0.0000   0.4826
   0.000   1.1035   0.01365   0.00655  -0.2444  0.6938  0.1997  -1.2656   0.0000   0.4695
   0.500   1.1546   0.01403   0.00666  -0.2430  0.6607  0.2472  -1.3348   0.0000   0.4576
   1.000   1.2016   0.01435   0.00685  -0.2409  0.6303  0.2891  -1.4047   0.0000   0.4468
   1.500   1.2523   0.01476   0.00710  -0.2396  0.6052  0.3347  -1.4795   0.0000   0.4368
   2.000   1.3016   0.01517   0.00748  -0.2381  0.5829  0.3949  -1.5573   0.0000   0.4276
   2.500   1.3527   0.01555   0.00792  -0.2371  0.5632  0.4832  -1.6375   0.0000   0.4191
   3.000   1.3966   0.01541   0.00830  -0.2344  0.5454  1.0000  -1.7153   0.0000   0.4109
   3.500   1.4455   0.01608   0.00872  -0.2330  0.5280  1.0000  -1.8032   0.0000   0.4033
   4.000   1.4895   0.01667   0.00921  -0.2305  0.5117  1.0000  -1.8899   0.0000   0.3961
   4.500   1.5321   0.01729   0.00974  -0.2278  0.4956  1.0000  -1.9765   0.0000   0.3891
   5.000   1.5739   0.01795   0.01033  -0.2251  0.4798  1.0000  -2.0638   0.0000   0.3826
   5.500   1.6142   0.01865   0.01094  -0.2220  0.4640  1.0000  -2.1555   0.0000   0.3762
   6.000   1.6516   0.01937   0.01161  -0.2185  0.4475  1.0000  -2.2452   0.0000   0.3701
   6.500   1.6867   0.02016   0.01233  -0.2146  0.4304  1.0000  -2.3377   0.0000   0.3641
   7.000   1.7185   0.02103   0.01318  -0.2103  0.4126  1.0000  -2.4283   0.0000   0.3583
   7.500   1.7484   0.02199   0.01416  -0.2057  0.3944  1.0000  -2.5187   0.0000   0.3526
   8.000   1.7755   0.02312   0.01530  -0.2008  0.3751  1.0000  -2.6105   0.0000   0.3471
   8.500   1.8007   0.02441   0.01663  -0.1958  0.3551  1.0000  -2.7001   0.0000   0.3418
   9.000   1.8253   0.02591   0.01815  -0.1909  0.3357  1.0000  -2.7889   0.0000   0.3367
   9.500   1.8481   0.02763   0.01988  -0.1860  0.3169  1.0000  -2.8809   0.0000   0.3317
  10.000   1.8704   0.02956   0.02183  -0.1814  0.3000  1.0000  -2.9802   0.0000   0.3270
  10.500   1.8919   0.03169   0.02396  -0.1769  0.2849  1.0000  -3.0785   0.0000   0.3225
  11.000   1.9124   0.03402   0.02628  -0.1725  0.2709  1.0000  -3.1758   0.0000   0.3181
  11.500   1.9319   0.03643   0.02888  -0.1683  0.2589  1.0000  -3.2733   0.0000   0.3139
  12.000   1.9514   0.03909   0.03162  -0.1644  0.2478  1.0000  -3.3836   0.0000   0.3100
  12.500   1.9707   0.04188   0.03442  -0.1608  0.2373  1.0000  -3.4950   0.0000   0.3062
  13.000   1.9839   0.04508   0.03790  -0.1569  0.2280  1.0000  -3.5999   0.0000   0.3025
  13.500   2.0051   0.04806   0.04089  -0.1541  0.2190  1.0000  -3.7306   0.0000   0.2990
  14.000   2.0125   0.05199   0.04515  -0.1504  0.2112  1.0000  -3.8517   0.0000   0.2957
  14.500   2.0310   0.05534   0.04852  -0.1479  0.2028  1.0000  -4.0074   0.0000   0.2925
  15.000   2.0317   0.06027   0.05383  -0.1448  0.1956  1.0000  -4.1177   0.0000   0.2897
  15.500   2.0490   0.06387   0.05744  -0.1428  0.1879  1.0000  -4.2949   0.0000   0.2868
  16.000   2.0429   0.06997   0.06396  -0.1405  0.1815  1.0000  -4.4096   0.0000   0.2846
  16.500   2.0464   0.07519   0.06931  -0.1389  0.1743  1.0000  -4.6901   0.0000   0.2823
  17.000   2.0422   0.08164   0.07608  -0.1378  0.1675  1.0000  -4.9748   0.0000   0.2805


