XFLR5 v6.09.06

 Calculated polar for: MIN ponta2016

 1 1 Reynolds number fixed          Mach number fixed         

 xtrf =   1.000 (top)        1.000 (bottom)
 Mach =   0.000     Re =     0.080 e 6     Ncrit =   9.000

  alpha     CL        CD       CDp       Cm    Top Xtr Bot Xtr   Cpmin    Chinge    XCp    
 ------- -------- --------- --------- -------- ------- ------- -------- --------- ---------
 -10.000  -0.2375   0.15461   0.14945  -0.0214  1.0000  0.0539  -1.1614   0.0000   0.1414
  -9.500  -0.2357   0.15062   0.14557  -0.0193  1.0000  0.0555  -1.1234   0.0000   0.1506
  -9.000  -0.2375   0.14748   0.14256  -0.0173  1.0000  0.0572  -1.1084   0.0000   0.1608
  -8.500  -0.2420   0.14480   0.13999  -0.0153  1.0000  0.0590  -1.1077   0.0000   0.1713
  -8.000  -0.2512   0.14314   0.13847  -0.0137  1.0000  0.0606  -1.1382   0.0000   0.1816
  -7.500  -0.2700   0.14346   0.13894  -0.0123  1.0000  0.0613  -1.2230   0.0000   0.1925
  -7.000  -0.2895   0.14479   0.14043  -0.0132  0.9968  0.0616  -1.3304   0.0000   0.1936
  -6.500  -0.2067   0.12998   0.12556  -0.0220  0.9805  0.0661  -1.1338   0.0000   0.1281
  -6.000  -0.1730   0.12557   0.12115  -0.0313  0.9598  0.0706  -1.1636   0.0000   0.0509
  -5.500  -0.1662   0.12620   0.12186  -0.0432  0.9323  0.0720  -1.3298   0.0000  -0.0282
  -5.000  -0.1177   0.11435   0.11000  -0.0409  0.9183  0.0779  -1.1403   0.0000  -0.1227
  -4.500  -0.0806   0.11310   0.10874  -0.0602  0.8909  0.0840  -1.2957   0.0000  -0.5319
  -4.000  -0.0396   0.10227   0.09793  -0.0566  0.8802  0.0890  -1.1407   0.0000  -1.2457
  -3.500   0.0244   0.09932   0.09493  -0.0808  0.8515  0.0981  -1.2725   0.0000   3.6678
  -3.000   0.0351   0.09101   0.08668  -0.0707  0.8355  0.1018  -1.1407   0.0000   2.3236
  -2.500   0.1203   0.08436   0.07993  -0.0911  0.8171  0.1149  -1.1539   0.0000   1.0233
  -2.000   0.1546   0.07849   0.07407  -0.0897  0.8003  0.1234  -1.0470   0.0000   0.8404
  -0.500   0.4675   0.05731   0.05242  -0.1391  0.7614  0.1999  -0.8287   0.0000   0.5480
   0.000   0.8274   0.03587   0.02846  -0.2070  0.7666  0.1414  -1.1227   0.0000   0.4989
   0.500   0.9527   0.03131   0.02339  -0.2169  0.7605  0.2321  -1.1522   0.0000   0.4754
   1.500   1.1330   0.02825   0.02007  -0.2264  0.7268  0.4177  -1.3506   0.0000   0.4460
   2.000   1.2157   0.02720   0.01886  -0.2301  0.7071  0.5132  -1.4511   0.0000   0.4345
   2.500   1.2780   0.02594   0.01821  -0.2300  0.6863  0.8248  -1.5380   0.0000   0.4243
   3.000   1.3517   0.02621   0.01778  -0.2326  0.6646  1.0000  -1.6375   0.0000   0.4157
   3.500   1.4162   0.02671   0.01787  -0.2335  0.6435  1.0000  -1.7355   0.0000   0.4076
   4.000   1.4646   0.02768   0.01865  -0.2317  0.6217  1.0000  -1.8234   0.0000   0.4001
   4.500   1.5107   0.02874   0.01956  -0.2296  0.5999  1.0000  -1.9100   0.0000   0.3930
   5.000   1.5576   0.02981   0.02052  -0.2276  0.5780  1.0000  -1.9990   0.0000   0.3862
   5.500   1.6043   0.03094   0.02154  -0.2256  0.5564  1.0000  -2.0941   0.0000   0.3798
   6.000   1.6500   0.03213   0.02267  -0.2235  0.5347  1.0000  -2.1890   0.0000   0.3738
   6.500   1.6947   0.03332   0.02379  -0.2212  0.5129  1.0000  -2.2896   0.0000   0.3679
   7.000   1.7400   0.03449   0.02490  -0.2191  0.4913  1.0000  -2.3927   0.0000   0.3623
   7.500   1.7868   0.03563   0.02593  -0.2172  0.4697  1.0000  -2.5033   0.0000   0.3570
   8.000   1.8152   0.03722   0.02764  -0.2124  0.4482  1.0000  -2.5918   0.0000   0.3515
   8.500   1.8413   0.03891   0.02942  -0.2073  0.4274  1.0000  -2.6773   0.0000   0.3461
   9.000   1.8683   0.04066   0.03129  -0.2026  0.4080  1.0000  -2.7685   0.0000   0.3410
   9.500   1.8947   0.04248   0.03319  -0.1978  0.3898  1.0000  -2.8658   0.0000   0.3359
  10.000   1.9218   0.04432   0.03512  -0.1933  0.3728  1.0000  -2.9675   0.0000   0.3311
  10.500   1.9560   0.04612   0.03695  -0.1901  0.3568  1.0000  -3.0804   0.0000   0.3267
  11.000   1.9542   0.04909   0.04024  -0.1818  0.3429  1.0000  -3.1389   0.0000   0.3215
  11.500   1.9443   0.05320   0.04473  -0.1734  0.3306  1.0000  -3.1869   0.0000   0.3166
  12.000   1.9651   0.05615   0.04782  -0.1693  0.3182  1.0000  -3.2922   0.0000   0.3125
  12.500   2.0197   0.05765   0.04928  -0.1694  0.3048  1.0000  -3.4670   0.0000   0.3091
  13.000   1.9164   0.06850   0.06098  -0.1542  0.2982  1.0000  -3.3345   0.0000   0.3047
  16.500   1.3106   0.23778   0.23170  -0.2156  0.2774  1.0000  -1.6024   0.0000   0.3858
  17.000   1.3677   0.24882   0.24297  -0.2124  0.2704  1.0000  -1.7767   0.0000   0.3751


