XFLR5 v6.09.06

 Calculated polar for: MIN ponta2016

 1 1 Reynolds number fixed          Mach number fixed         

 xtrf =   1.000 (top)        1.000 (bottom)
 Mach =   0.000     Re =     0.260 e 6     Ncrit =   9.000

  alpha     CL        CD       CDp       Cm    Top Xtr Bot Xtr   Cpmin    Chinge    XCp    
 ------- -------- --------- --------- -------- ------- ------- -------- --------- ---------
 -10.000  -0.1142   0.13667   0.13355  -0.0522  0.9753  0.0216  -1.1605   0.0000  -0.2550
  -9.500  -0.0828   0.13006   0.12694  -0.0580  0.9663  0.0224  -1.1129   0.0000  -0.5161
  -9.000  -0.0525   0.12372   0.12061  -0.0637  0.9586  0.0232  -1.0798   0.0000  -1.0628
  -8.500  -0.0175   0.11724   0.11412  -0.0718  0.9529  0.0241  -1.1203   0.0000  -4.1537
  -8.000   0.0022   0.11239   0.10928  -0.0789  0.9419  0.0243  -1.2797   0.0000  38.1625
  -7.500   0.0474   0.10435   0.10125  -0.0829  0.9385  0.0250  -1.0932   0.0000   2.0994
  -7.000   0.0751   0.09880   0.09572  -0.0864  0.9279  0.0261  -1.0547   0.0000   1.4616
  -6.500   0.0994   0.09347   0.09040  -0.0897  0.9159  0.0274  -1.0629   0.0000   1.1962
  -6.000   0.1108   0.08916   0.08613  -0.0938  0.9009  0.0285  -1.2284   0.0000   1.1322
  -5.500   0.1481   0.08229   0.07928  -0.0978  0.8939  0.0292  -1.1613   0.0000   0.9355
  -5.000   0.1822   0.07657   0.07357  -0.1015  0.8823  0.0308  -1.0921   0.0000   0.8252
  -4.500   0.2305   0.06906   0.06603  -0.1176  0.8663  0.0335  -1.3600   0.0000   0.7733
  -3.000   0.4232   0.04703   0.04385  -0.1494  0.8318  0.0460  -1.2679   0.0000   0.6079
  -2.500   0.5171   0.03983   0.03651  -0.1650  0.8161  0.0542  -1.1454   0.0000   0.5720
  -2.000   0.6489   0.03162   0.02801  -0.1885  0.7993  0.0648  -0.9917   0.0000   0.5422
  -1.500   0.9004   0.01340   0.00704  -0.2377  0.7847  0.0459  -1.6136   0.0000   0.5147
  -1.000   0.9893   0.01256   0.00597  -0.2442  0.7484  0.0766  -1.2916   0.0000   0.4966
  -0.500   1.0526   0.01250   0.00570  -0.2453  0.7105  0.1316  -1.2032   0.0000   0.4819
   0.000   1.1025   0.01282   0.00583  -0.2437  0.6731  0.1899  -1.2661   0.0000   0.4690
   0.500   1.1501   0.01318   0.00599  -0.2416  0.6398  0.2325  -1.3325   0.0000   0.4572
   1.000   1.1964   0.01357   0.00622  -0.2394  0.6102  0.2728  -1.4021   0.0000   0.4464
   1.500   1.2461   0.01402   0.00651  -0.2380  0.5864  0.3160  -1.4761   0.0000   0.4364
   2.000   1.2959   0.01445   0.00689  -0.2366  0.5659  0.3726  -1.5544   0.0000   0.4272
   2.500   1.3461   0.01485   0.00732  -0.2354  0.5473  0.4509  -1.6340   0.0000   0.4187
   3.000   1.3936   0.01497   0.00785  -0.2338  0.5297  0.6678  -1.7149   0.0000   0.4107
   3.500   1.4327   0.01512   0.00814  -0.2301  0.5139  1.0000  -1.7934   0.0000   0.4027
   4.000   1.4782   0.01572   0.00860  -0.2280  0.4987  1.0000  -1.8816   0.0000   0.3955
   4.500   1.5221   0.01634   0.00909  -0.2256  0.4834  1.0000  -1.9696   0.0000   0.3886
   5.000   1.5653   0.01701   0.00964  -0.2231  0.4684  1.0000  -2.0582   0.0000   0.3821
   5.500   1.6032   0.01763   0.01022  -0.2196  0.4525  1.0000  -2.1474   0.0000   0.3756
   6.000   1.6401   0.01831   0.01091  -0.2161  0.4361  1.0000  -2.2364   0.0000   0.3695
   6.500   1.6753   0.01908   0.01166  -0.2123  0.4191  1.0000  -2.3284   0.0000   0.3635
   7.000   1.7093   0.01994   0.01252  -0.2084  0.4016  1.0000  -2.4214   0.0000   0.3578
   7.500   1.7410   0.02092   0.01349  -0.2042  0.3833  1.0000  -2.5136   0.0000   0.3523
   8.000   1.7698   0.02206   0.01462  -0.1997  0.3635  1.0000  -2.6080   0.0000   0.3468
   8.500   1.7970   0.02339   0.01592  -0.1951  0.3437  1.0000  -2.7004   0.0000   0.3416
   9.000   1.8219   0.02495   0.01745  -0.1904  0.3242  1.0000  -2.7902   0.0000   0.3365
   9.500   1.8451   0.02674   0.01920  -0.1856  0.3056  1.0000  -2.8823   0.0000   0.3316
  10.000   1.8681   0.02865   0.02114  -0.1811  0.2890  1.0000  -2.9829   0.0000   0.3269
  10.500   1.8900   0.03074   0.02328  -0.1767  0.2739  1.0000  -3.0822   0.0000   0.3224
  11.000   1.9113   0.03300   0.02563  -0.1725  0.2607  1.0000  -3.1805   0.0000   0.3181
  11.500   1.9308   0.03554   0.02822  -0.1684  0.2494  1.0000  -3.2782   0.0000   0.3140
  12.000   1.9482   0.03829   0.03102  -0.1644  0.2385  1.0000  -3.3860   0.0000   0.3100
  12.500   1.9658   0.04114   0.03407  -0.1607  0.2287  1.0000  -3.4934   0.0000   0.3062
  13.000   1.9825   0.04433   0.03725  -0.1572  0.2193  1.0000  -3.6060   0.0000   0.3026
  13.500   1.9958   0.04775   0.04097  -0.1538  0.2115  1.0000  -3.7177   0.0000   0.2992
  14.000   2.0117   0.05125   0.04447  -0.1509  0.2031  1.0000  -3.8595   0.0000   0.2959
  14.500   2.0182   0.05560   0.04916  -0.1480  0.1959  1.0000  -3.9842   0.0000   0.2930
  15.000   2.0304   0.05966   0.05325  -0.1456  0.1883  1.0000  -4.1256   0.0000   0.2901
  15.500   2.0345   0.06473   0.05867  -0.1434  0.1818  1.0000  -4.2608   0.0000   0.2875
  16.000   2.0381   0.06996   0.06405  -0.1416  0.1748  1.0000  -4.4067   0.0000   0.2852
  16.500   2.0395   0.07573   0.07007  -0.1403  0.1680  1.0000  -4.6632   0.0000   0.2831
  17.000   2.0370   0.08218   0.07674  -0.1395  0.1613  1.0000  -4.9581   0.0000   0.2814


