XFLR5 v6.09.06

 Calculated polar for: MIN ponta2016

 1 1 Reynolds number fixed          Mach number fixed         

 xtrf =   1.000 (top)        1.000 (bottom)
 Mach =   0.080     Re =     0.180 e 6     Ncrit =   9.000

  alpha     CL        CD       CDp       Cm    Top Xtr Bot Xtr   Cpmin    Chinge    XCp    
 ------- -------- --------- --------- -------- ------- ------- -------- --------- ---------
 -10.000  -0.1963   0.14704   0.14351  -0.0313  0.9892  0.0283  -1.2136   0.0000   0.0661
  -9.500  -0.1648   0.14170   0.13816  -0.0416  0.9792  0.0286  -1.2921   0.0000  -0.0319
  -9.000  -0.1246   0.13304   0.12950  -0.0465  0.9719  0.0293  -1.1402   0.0000  -0.1618
  -8.500  -0.0871   0.12643   0.12289  -0.0535  0.9642  0.0305  -1.0619   0.0000  -0.4182
  -8.000  -0.0567   0.12031   0.11678  -0.0591  0.9536  0.0318  -1.0558   0.0000  -0.8729
  -7.500  -0.0297   0.11491   0.11138  -0.0658  0.9419  0.0332  -1.1326   0.0000  -2.1167
  -7.000  -0.0055   0.10923   0.10573  -0.0713  0.9296  0.0337  -1.1922   0.0000  -13.5102
  -6.000   0.0686   0.09639   0.09290  -0.0813  0.9118  0.0374  -1.0714   0.0000   1.4911
  -5.500   0.0653   0.09353   0.09010  -0.0818  0.8885  0.0388  -1.2010   0.0000   1.5546
  -5.000   0.1113   0.08572   0.08230  -0.0876  0.8813  0.0402  -1.1353   0.0000   1.0660
  -4.500   0.1429   0.08004   0.07663  -0.0911  0.8660  0.0429  -1.1008   0.0000   0.9077
  -4.000   0.1893   0.07290   0.06948  -0.1029  0.8499  0.0460  -1.2158   0.0000   0.8072
  -3.000   0.3155   0.05873   0.05524  -0.1212  0.8308  0.0587  -1.0836   0.0000   0.6402
  -2.500   0.3936   0.05132   0.04775  -0.1347  0.8162  0.0656  -1.0470   0.0000   0.5961
  -1.500   0.8211   0.01875   0.01244  -0.2243  0.8041  0.0512  -1.5909   0.0000   0.5239
  -1.000   0.9326   0.01590   0.00909  -0.2345  0.7819  0.0762  -1.3693   0.0000   0.5012
  -0.500   1.0298   0.01490   0.00783  -0.2421  0.7496  0.1335  -1.1879   0.0000   0.4840
   0.000   1.1016   0.01500   0.00767  -0.2447  0.7156  0.2089  -1.2656   0.0000   0.4702
   0.500   1.1578   0.01530   0.00779  -0.2442  0.6826  0.2622  -1.3383   0.0000   0.4582
   1.000   1.2072   0.01562   0.00795  -0.2425  0.6528  0.3077  -1.4101   0.0000   0.4473
   1.500   1.2591   0.01594   0.00813  -0.2413  0.6265  0.3559  -1.4860   0.0000   0.4372
   2.000   1.3116   0.01634   0.00843  -0.2404  0.6035  0.4224  -1.5668   0.0000   0.4280
   2.500   1.3627   0.01665   0.00887  -0.2392  0.5823  0.5257  -1.6471   0.0000   0.4194
   3.000   1.4068   0.01662   0.00919  -0.2365  0.5635  1.0000  -1.7254   0.0000   0.4111
   3.500   1.4564   0.01736   0.00967  -0.2350  0.5448  1.0000  -1.8140   0.0000   0.4036
   4.000   1.5062   0.01812   0.01019  -0.2337  0.5273  1.0000  -1.9071   0.0000   0.3965
   4.500   1.5495   0.01881   0.01081  -0.2311  0.5102  1.0000  -1.9946   0.0000   0.3896
   5.000   1.5911   0.01952   0.01148  -0.2282  0.4930  1.0000  -2.0825   0.0000   0.3830
   5.500   1.6316   0.02026   0.01217  -0.2251  0.4761  1.0000  -2.1747   0.0000   0.3767
   6.000   1.6681   0.02101   0.01290  -0.2213  0.4587  1.0000  -2.2636   0.0000   0.3705
   6.500   1.7020   0.02182   0.01368  -0.2171  0.4411  1.0000  -2.3555   0.0000   0.3644
   7.000   1.7328   0.02269   0.01455  -0.2124  0.4227  1.0000  -2.4452   0.0000   0.3585
   7.500   1.7614   0.02368   0.01554  -0.2074  0.4039  1.0000  -2.5346   0.0000   0.3528
   8.000   1.7882   0.02481   0.01670  -0.2023  0.3848  1.0000  -2.6263   0.0000   0.3472
   8.500   1.8123   0.02612   0.01801  -0.1970  0.3651  1.0000  -2.7150   0.0000   0.3418
   9.000   1.8356   0.02764   0.01955  -0.1918  0.3460  1.0000  -2.8025   0.0000   0.3366
   9.500   1.8581   0.02937   0.02128  -0.1867  0.3278  1.0000  -2.8947   0.0000   0.3315
  10.000   1.8796   0.03130   0.02325  -0.1818  0.3108  1.0000  -2.9930   0.0000   0.3267
  10.500   1.9016   0.03342   0.02543  -0.1772  0.2956  1.0000  -3.0918   0.0000   0.3222
  11.000   1.9231   0.03572   0.02776  -0.1729  0.2817  1.0000  -3.1903   0.0000   0.3178
  11.500   1.9471   0.03809   0.03012  -0.1691  0.2691  1.0000  -3.2980   0.0000   0.3137
  12.000   1.9631   0.04081   0.03305  -0.1646  0.2577  1.0000  -3.4020   0.0000   0.3096
  12.500   1.9817   0.04370   0.03609  -0.1608  0.2470  1.0000  -3.5109   0.0000   0.3057
  13.000   2.0082   0.04629   0.03865  -0.1580  0.2366  1.0000  -3.6444   0.0000   0.3021
  13.500   2.0118   0.05017   0.04292  -0.1534  0.2280  1.0000  -3.7398   0.0000   0.2985
  14.000   2.0388   0.05295   0.04570  -0.1511  0.2191  1.0000  -3.9086   0.0000   0.2951
  14.500   2.0351   0.05778   0.05096  -0.1468  0.2114  1.0000  -4.0091   0.0000   0.2919
  15.000   2.0587   0.06087   0.05406  -0.1447  0.2028  1.0000  -4.1802   0.0000   0.2888
  15.500   2.0463   0.06703   0.06069  -0.1413  0.1960  1.0000  -4.2756   0.0000   0.2862
  16.000   2.0665   0.07040   0.06408  -0.1395  0.1882  1.0000  -4.4743   0.0000   0.2834
  16.500   2.0463   0.07810   0.07228  -0.1373  0.1817  1.0000  -4.6414   0.0000   0.2816
  17.000   2.0482   0.08344   0.07778  -0.1360  0.1744  1.0000  -4.9668   0.0000   0.2795


