XFLR5 v6.09.06

 Calculated polar for: MIN ponta2016

 1 1 Reynolds number fixed          Mach number fixed         

 xtrf =   1.000 (top)        1.000 (bottom)
 Mach =   0.080     Re =     0.400 e 6     Ncrit =   9.000

  alpha     CL        CD       CDp       Cm    Top Xtr Bot Xtr   Cpmin    Chinge    XCp    
 ------- -------- --------- --------- -------- ------- ------- -------- --------- ---------
 -10.000   0.1036   0.10141   0.09890  -0.0905  0.9415  0.0176  -0.8356   0.0000   1.1680
  -9.500   0.1338   0.09457   0.09205  -0.0959  0.9399  0.0181  -0.7777   0.0000   1.0001
  -9.000   0.1468   0.08937   0.08687  -0.0964  0.9302  0.0187  -0.7767   0.0000   0.9361
  -8.500   0.1756   0.08234   0.07984  -0.1015  0.9276  0.0196  -0.7851   0.0000   0.8523
  -7.500   0.1107   0.09650   0.09387  -0.0971  0.9320  0.0191  -1.0449   0.0000   1.1738
  -7.000   0.1477   0.09000   0.08737  -0.1048  0.9274  0.0203  -1.1249   0.0000   0.9931
  -6.500   0.1586   0.08526   0.08266  -0.1089  0.9143  0.0205  -1.3315   0.0000   0.9657
  -6.000   0.2061   0.07842   0.07582  -0.1133  0.9120  0.0211  -1.1383   0.0000   0.8208
  -5.500   0.2220   0.07410   0.07153  -0.1130  0.8984  0.0218  -1.0956   0.0000   0.7766
  -5.000   0.2478   0.06866   0.06611  -0.1159  0.8845  0.0232  -1.1049   0.0000   0.7320
  -4.500   0.2871   0.06117   0.05860  -0.1266  0.8687  0.0246  -1.3252   0.0000   0.7022
  -3.500   0.4042   0.04771   0.04502  -0.1472  0.8355  0.0291  -1.3195   0.0000   0.6203
  -2.500   0.7936   0.01275   0.00743  -0.2384  0.8071  0.0236  -2.1107   0.0000   0.5530
  -2.000   0.8839   0.01133   0.00546  -0.2451  0.7702  0.0277  -1.8736   0.0000   0.5289
  -1.500   0.9511   0.01094   0.00476  -0.2472  0.7319  0.0405  -1.6083   0.0000   0.5105
  -1.000   1.0032   0.01089   0.00450  -0.2460  0.6941  0.0630  -1.3223   0.0000   0.4949
  -0.500   1.0477   0.01095   0.00444  -0.2433  0.6530  0.1051  -1.2048   0.0000   0.4810
   0.000   1.0903   0.01131   0.00464  -0.2402  0.6160  0.1610  -1.2625   0.0000   0.4682
   0.500   1.1349   0.01179   0.00490  -0.2377  0.5858  0.1982  -1.3263   0.0000   0.4564
   1.000   1.1830   0.01218   0.00518  -0.2358  0.5629  0.2338  -1.3976   0.0000   0.4456
   1.500   1.2319   0.01256   0.00549  -0.2342  0.5435  0.2720  -1.4708   0.0000   0.4355
   2.000   1.2808   0.01295   0.00585  -0.2327  0.5262  0.3185  -1.5489   0.0000   0.4262
   2.500   1.3286   0.01331   0.00624  -0.2309  0.5096  0.3831  -1.6271   0.0000   0.4175
   3.000   1.3770   0.01361   0.00666  -0.2293  0.4951  0.4618  -1.7081   0.0000   0.4095
   4.000   1.4658   0.01394   0.00755  -0.2246  0.4668  1.0000  -1.8801   0.0000   0.3944
   4.500   1.5098   0.01449   0.00799  -0.2222  0.4526  1.0000  -1.9686   0.0000   0.3875
   5.000   1.5528   0.01504   0.00850  -0.2196  0.4377  1.0000  -2.0573   0.0000   0.3809
   5.500   1.5948   0.01566   0.00907  -0.2170  0.4224  1.0000  -2.1509   0.0000   0.3746
   6.000   1.6345   0.01636   0.00972  -0.2139  0.4063  1.0000  -2.2438   0.0000   0.3686
   6.500   1.6731   0.01713   0.01044  -0.2108  0.3900  1.0000  -2.3399   0.0000   0.3628
   7.500   1.7447   0.01896   0.01221  -0.2038  0.3521  1.0000  -2.5342   0.0000   0.3517
   8.000   1.7777   0.02009   0.01330  -0.2001  0.3316  1.0000  -2.6348   0.0000   0.3465
   8.500   1.8075   0.02144   0.01459  -0.1959  0.3106  1.0000  -2.7321   0.0000   0.3414
   9.000   1.8352   0.02299   0.01610  -0.1917  0.2911  1.0000  -2.8269   0.0000   0.3364
   9.500   1.8616   0.02468   0.01777  -0.1874  0.2740  1.0000  -2.9251   0.0000   0.3316
  10.000   1.8871   0.02651   0.01962  -0.1832  0.2586  1.0000  -3.0315   0.0000   0.3270
  10.500   1.9112   0.02850   0.02165  -0.1791  0.2459  1.0000  -3.1362   0.0000   0.3225
  11.000   1.9310   0.03088   0.02406  -0.1746  0.2346  1.0000  -3.2346   0.0000   0.3182
  11.500   1.9520   0.03326   0.02652  -0.1707  0.2240  1.0000  -3.3375   0.0000   0.3141
  12.000   1.9713   0.03589   0.02927  -0.1668  0.2148  1.0000  -3.4507   0.0000   0.3101
  12.500   1.9863   0.03902   0.03247  -0.1629  0.2061  1.0000  -3.5567   0.0000   0.3064
  13.000   2.0036   0.04212   0.03574  -0.1595  0.1988  1.0000  -3.6719   0.0000   0.3028
  13.500   2.0154   0.04587   0.03960  -0.1561  0.1910  1.0000  -3.7838   0.0000   0.2994
  14.000   2.0271   0.04984   0.04374  -0.1532  0.1839  1.0000  -3.9194   0.0000   0.2963
  14.500   2.0375   0.05413   0.04819  -0.1506  0.1771  1.0000  -4.0570   0.0000   0.2934
  15.000   2.0421   0.05923   0.05341  -0.1481  0.1705  1.0000  -4.1805   0.0000   0.2907
  15.500   2.0498   0.06422   0.05864  -0.1464  0.1640  1.0000  -4.3290   0.0000   0.2883
  16.000   2.0481   0.07047   0.06496  -0.1448  0.1569  1.0000  -4.4610   0.0000   0.2861
  16.500   2.0522   0.07635   0.07115  -0.1440  0.1512  1.0000  -4.7368   0.0000   0.2842
  17.000   2.0477   0.08349   0.07841  -0.1436  0.1449  1.0000  -5.0283   0.0000   0.2827


