XFLR5 v6.09.06

 Calculated polar for: MIN ponta2016

 1 1 Reynolds number fixed          Mach number fixed         

 xtrf =   1.000 (top)        1.000 (bottom)
 Mach =   0.000     Re =     0.320 e 6     Ncrit =   9.000

  alpha     CL        CD       CDp       Cm    Top Xtr Bot Xtr   Cpmin    Chinge    XCp    
 ------- -------- --------- --------- -------- ------- ------- -------- --------- ---------
 -10.000  -0.0795   0.13210   0.12921  -0.0610  0.9671  0.0193  -1.1409   0.0000  -0.5893
  -9.500  -0.0394   0.12491   0.12200  -0.0697  0.9639  0.0201  -1.1222   0.0000  -1.6652
  -9.000  -0.0165   0.11910   0.11619  -0.0749  0.9544  0.0204  -1.1753   0.0000  -4.6293
  -8.500   0.0048   0.11369   0.11081  -0.0811  0.9457  0.0205  -1.2938   0.0000  18.0847
  -8.000   0.0460   0.10619   0.10331  -0.0847  0.9419  0.0210  -1.1054   0.0000   2.2044
  -7.000   0.1112   0.09439   0.09153  -0.0949  0.9277  0.0229  -1.0481   0.0000   1.1466
  -6.500   0.1313   0.08920   0.08637  -0.0984  0.9154  0.0241  -1.1381   0.0000   1.0339
  -5.500   0.1885   0.07777   0.07498  -0.1059  0.8975  0.0253  -1.1132   0.0000   0.8318
  -5.000   0.2148   0.07246   0.06968  -0.1085  0.8834  0.0268  -1.0921   0.0000   0.7712
  -4.000   0.2901   0.06007   0.05729  -0.1209  0.8554  0.0299  -1.1572   0.0000   0.6763
  -3.500   0.3688   0.05114   0.04827  -0.1396  0.8423  0.0339  -1.3050   0.0000   0.6352
  -3.000   0.4709   0.04241   0.03939  -0.1600  0.8299  0.0397  -1.2920   0.0000   0.5942
  -2.500   0.5659   0.03595   0.03276  -0.1755  0.8093  0.0473  -1.1339   0.0000   0.5630
  -2.000   0.8447   0.01285   0.00697  -0.2375  0.7985  0.0303  -1.8715   0.0000   0.5328
  -1.500   0.9344   0.01189   0.00562  -0.2441  0.7624  0.0446  -1.5872   0.0000   0.5118
  -1.000   1.0014   0.01164   0.00511  -0.2461  0.7241  0.0717  -1.2856   0.0000   0.4954
  -0.500   1.0535   0.01161   0.00499  -0.2450  0.6853  0.1228  -1.2048   0.0000   0.4814
   0.000   1.0972   0.01195   0.00515  -0.2421  0.6471  0.1772  -1.2634   0.0000   0.4686
   0.500   1.1409   0.01235   0.00534  -0.2393  0.6141  0.2152  -1.3267   0.0000   0.4568
   1.000   1.1873   0.01281   0.00560  -0.2372  0.5871  0.2535  -1.3964   0.0000   0.4460
   1.500   1.2362   0.01322   0.00591  -0.2356  0.5654  0.2942  -1.4694   0.0000   0.4360
   2.000   1.2854   0.01364   0.00628  -0.2342  0.5465  0.3460  -1.5473   0.0000   0.4268
   2.500   1.3334   0.01400   0.00670  -0.2325  0.5290  0.4159  -1.6251   0.0000   0.4181
   3.000   1.3811   0.01429   0.00717  -0.2309  0.5127  0.5196  -1.7056   0.0000   0.4101
   3.500   1.4232   0.01417   0.00757  -0.2280  0.4984  1.0000  -1.7868   0.0000   0.4023
   4.000   1.4683   0.01474   0.00799  -0.2258  0.4837  1.0000  -1.8750   0.0000   0.3950
   4.500   1.5126   0.01537   0.00845  -0.2235  0.4690  1.0000  -1.9634   0.0000   0.3881
   5.000   1.5538   0.01591   0.00897  -0.2206  0.4541  1.0000  -2.0496   0.0000   0.3815
   5.500   1.5940   0.01653   0.00955  -0.2176  0.4385  1.0000  -2.1410   0.0000   0.3752
   6.000   1.6329   0.01722   0.01022  -0.2145  0.4225  1.0000  -2.2323   0.0000   0.3691
   6.500   1.6700   0.01799   0.01094  -0.2111  0.4059  1.0000  -2.3262   0.0000   0.3632
   7.000   1.7054   0.01885   0.01178  -0.2075  0.3888  1.0000  -2.4211   0.0000   0.3576
   7.500   1.7385   0.01981   0.01273  -0.2036  0.3698  1.0000  -2.5152   0.0000   0.3521
   8.000   1.7695   0.02094   0.01383  -0.1996  0.3497  1.0000  -2.6124   0.0000   0.3468
   8.500   1.7983   0.02225   0.01512  -0.1953  0.3294  1.0000  -2.7073   0.0000   0.3416
   9.000   1.8246   0.02380   0.01662  -0.1908  0.3093  1.0000  -2.7993   0.0000   0.3366
   9.500   1.8499   0.02551   0.01831  -0.1864  0.2913  1.0000  -2.8947   0.0000   0.3318
  10.000   1.8737   0.02739   0.02021  -0.1821  0.2751  1.0000  -2.9973   0.0000   0.3271
  10.500   1.8963   0.02945   0.02230  -0.1778  0.2607  1.0000  -3.0983   0.0000   0.3227
  11.000   1.9171   0.03175   0.02466  -0.1735  0.2488  1.0000  -3.1967   0.0000   0.3183
  11.500   1.9343   0.03441   0.02733  -0.1692  0.2374  1.0000  -3.2915   0.0000   0.3142
  12.000   1.9551   0.03688   0.02997  -0.1655  0.2274  1.0000  -3.4054   0.0000   0.3103
  12.500   1.9699   0.04003   0.03317  -0.1616  0.2181  1.0000  -3.5091   0.0000   0.3065
  13.000   1.9869   0.04306   0.03639  -0.1582  0.2098  1.0000  -3.6223   0.0000   0.3029
  13.500   1.9996   0.04672   0.04012  -0.1548  0.2020  1.0000  -3.7337   0.0000   0.2995
  14.000   2.0124   0.05043   0.04407  -0.1520  0.1944  1.0000  -3.8689   0.0000   0.2964
  14.500   2.0213   0.05476   0.04845  -0.1491  0.1868  1.0000  -4.0011   0.0000   0.2934
  15.000   2.0305   0.05922   0.05321  -0.1469  0.1804  1.0000  -4.1336   0.0000   0.2906
  15.500   2.0358   0.06427   0.05832  -0.1448  0.1733  1.0000  -4.2743   0.0000   0.2881
  16.000   2.0395   0.06975   0.06410  -0.1433  0.1669  1.0000  -4.4189   0.0000   0.2859
  16.500   2.0397   0.07582   0.07033  -0.1422  0.1602  1.0000  -4.6767   0.0000   0.2839
  17.000   2.0399   0.08210   0.07681  -0.1415  0.1538  1.0000  -4.9885   0.0000   0.2821


