XFLR5 v6.09.06

 Calculated polar for: MIN ponta2016

 1 1 Reynolds number fixed          Mach number fixed         

 xtrf =   1.000 (top)        1.000 (bottom)
 Mach =   0.000     Re =     0.360 e 6     Ncrit =   9.000

  alpha     CL        CD       CDp       Cm    Top Xtr Bot Xtr   Cpmin    Chinge    XCp    
 ------- -------- --------- --------- -------- ------- ------- -------- --------- ---------
 -10.000  -0.0571   0.12887   0.12609  -0.0677  0.9653  0.0175  -1.1866   0.0000  -1.0410
  -9.000   0.0069   0.11621   0.11344  -0.0789  0.9539  0.0186  -1.0607   0.0000  12.4767
  -7.500   0.0852   0.09880   0.09605  -0.0954  0.9307  0.0205  -1.2740   0.0000   1.4297
  -7.000   0.1277   0.09161   0.08888  -0.1003  0.9274  0.0209  -1.1474   0.0000   1.0742
  -6.500   0.1496   0.08685   0.08415  -0.1017  0.9163  0.0216  -1.0839   0.0000   0.9596
  -6.000   0.1904   0.08067   0.07797  -0.1086  0.9121  0.0228  -1.0633   0.0000   0.8430
  -5.500   0.2074   0.07518   0.07250  -0.1133  0.8973  0.0242  -1.2429   0.0000   0.8150
  -5.000   0.2321   0.06930   0.06664  -0.1152  0.8835  0.0247  -1.2372   0.0000   0.7617
  -3.500   0.3702   0.05123   0.04849  -0.1365  0.8393  0.0303  -1.1765   0.0000   0.6252
  -3.000   0.4644   0.04282   0.03994  -0.1559  0.8217  0.0351  -1.2131   0.0000   0.5901
  -2.500   0.8010   0.00099  -0.00445  -0.2320  0.7775  0.0267  -1.8380   0.0000   0.5415
  -2.000   0.8712   0.00070  -0.00521  -0.2349  0.7405  0.0332  -1.6440   0.0000   0.5206
  -1.500   0.9260   0.00061  -0.00549  -0.2348  0.7036  0.0503  -1.3887   0.0000   0.5036
  -1.000   0.9743   0.00058  -0.00568  -0.2333  0.6658  0.0786  -1.1088   0.0000   0.4885
  -0.500   1.0197   0.00059  -0.00578  -0.2311  0.6295  0.1348  -1.1343   0.0000   0.4749
   0.000   1.0633   0.00070  -0.00584  -0.2287  0.6001  0.1824  -1.1928   0.0000   0.4625
   0.500   1.1082   0.00080  -0.00587  -0.2265  0.5750  0.2184  -1.2599   0.0000   0.4510
   1.000   1.1549   0.00091  -0.00585  -0.2248  0.5548  0.2555  -1.3292   0.0000   0.4405
   1.500   1.2021   0.00103  -0.00577  -0.2233  0.5371  0.2952  -1.4027   0.0000   0.4308
   2.000   1.2489   0.00116  -0.00565  -0.2217  0.5208  0.3469  -1.4781   0.0000   0.4217
   2.500   1.2950   0.00130  -0.00547  -0.2200  0.5052  0.4133  -1.5537   0.0000   0.4133
   3.000   1.3405   0.00142  -0.00523  -0.2182  0.4907  0.5034  -1.6342   0.0000   0.4054
   3.500   1.3773   0.00134  -0.00470  -0.2146  0.4766  1.0000  -1.7124   0.0000   0.3976
   4.000   1.4193   0.00157  -0.00459  -0.2121  0.4625  1.0000  -1.7967   0.0000   0.3904
   4.500   1.4592   0.00186  -0.00441  -0.2093  0.4483  1.0000  -1.8800   0.0000   0.3836
   5.000   1.4966   0.00216  -0.00418  -0.2061  0.4330  1.0000  -1.9642   0.0000   0.3770
   5.500   1.5327   0.00250  -0.00385  -0.2027  0.4172  1.0000  -2.0505   0.0000   0.3707
   6.000   1.5672   0.00293  -0.00342  -0.1992  0.4007  1.0000  -2.1369   0.0000   0.3646
   6.500   1.6000   0.00347  -0.00289  -0.1954  0.3838  1.0000  -2.2267   0.0000   0.3588
   7.000   1.6301   0.00418  -0.00220  -0.1914  0.3654  1.0000  -2.3140   0.0000   0.3531
   7.500   1.6570   0.00510  -0.00130  -0.1869  0.3457  1.0000  -2.4025   0.0000   0.3476
   8.000   1.6819   0.00633  -0.00009  -0.1824  0.3261  1.0000  -2.4901   0.0000   0.3422
   8.500   1.7034   0.00796   0.00150  -0.1776  0.3066  1.0000  -2.5738   0.0000   0.3371
   9.000   1.7238   0.00997   0.00352  -0.1729  0.2888  1.0000  -2.6558   0.0000   0.3321
   9.500   1.7429   0.01240   0.00598  -0.1683  0.2732  1.0000  -2.7462   0.0000   0.3274
  10.000   1.7604   0.01529   0.00894  -0.1638  0.2591  1.0000  -2.8369   0.0000   0.3228
  10.500   1.7754   0.01878   0.01250  -0.1594  0.2473  1.0000  -2.9237   0.0000   0.3184
  11.000   1.7843   0.02336   0.01710  -0.1547  0.2364  1.0000  -3.0007   0.0000   0.3143
  11.500   1.7977   0.02760   0.02153  -0.1508  0.2267  1.0000  -3.0893   0.0000   0.3104
  12.000   1.8026   0.03331   0.02733  -0.1466  0.2178  1.0000  -3.1715   0.0000   0.3067
  12.500   1.8083   0.03896   0.03318  -0.1430  0.2094  1.0000  -3.2550   0.0000   0.3032
  13.000   1.8080   0.04562   0.03995  -0.1393  0.2019  1.0000  -3.3311   0.0000   0.3000
  13.500   1.8078   0.05199   0.04658  -0.1363  0.1948  1.0000  -3.4099   0.0000   0.2971
  14.000   1.7992   0.05915   0.05383  -0.1330  0.1871  1.0000  -3.4893   0.0000   0.2944
  14.500   1.7797   0.06652   0.06158  -0.1299  0.1807  1.0000  -3.5529   0.0000   0.2921
  15.000   1.7630   0.07276   0.06797  -0.1274  0.1740  1.0000  -3.6205   0.0000   0.2901
  15.500   1.7534   0.07850   0.07399  -0.1261  0.1678  1.0000  -3.6985   0.0000   0.2884
  16.000   1.7416   0.08459   0.08027  -0.1255  0.1612  1.0000  -3.7873   0.0000   0.2872
  16.500   1.7334   0.09006   0.08591  -0.1252  0.1546  1.0000  -3.8873   0.0000   0.2860
  17.000   1.7193   0.09655   0.09267  -0.1258  0.1484  1.0000  -4.0194   0.0000   0.2855


