xflr5 v6.10.03

 Calculated polar for: NACA 0011

 1 1 Reynolds number fixed          Mach number fixed         

 xtrf =   0.500 (top)        0.500 (bottom)
 Mach =   0.080     Re =     0.310 e 6     Ncrit =   9.000

  alpha     CL        CD       CDp       Cm    Top Xtr Bot Xtr   Cpmin    Chinge    XCp    
 ------- -------- --------- --------- -------- ------- ------- -------- --------- ---------
  -5.000  -0.5530   0.01242   0.00408  -0.0024  0.5000  0.2055  -2.0709   0.0000   0.2402
  -4.000  -0.4505   0.01087   0.00313  -0.0009  0.5000  0.3677  -1.5382   0.0000   0.2431
  -3.000  -0.3448   0.00985   0.00249   0.0004  0.5000  0.5000  -1.1141   0.0000   0.2470
  -2.000  -0.2300   0.00964   0.00201   0.0003  0.5000  0.5000  -0.7751   0.0000   0.2474
  -1.000  -0.1150   0.00954   0.00173   0.0002  0.5000  0.5000  -0.5368   0.0000   0.2477
   0.000   0.0000   0.00950   0.00165  -0.0000  0.5000  0.5000  -0.3823   0.0000   2.3960
   1.000   0.1150   0.00954   0.00173  -0.0002  0.5000  0.5000  -0.5368   0.0000   0.2477
   2.000   0.2300   0.00964   0.00201  -0.0003  0.5000  0.5000  -0.7751   0.0000   0.2474
   3.000   0.3448   0.00985   0.00249  -0.0004  0.5000  0.5000  -1.1141   0.0000   0.2470
   4.000   0.4505   0.01087   0.00313   0.0009  0.3677  0.5000  -1.5382   0.0000   0.2431
   5.000   0.5530   0.01242   0.00408   0.0024  0.2055  0.5000  -2.0710   0.0000   0.2403
   6.000   0.6527   0.01451   0.00573   0.0041  0.0969  0.5000  -2.6452   0.0000   0.2375
   7.000   0.7482   0.01710   0.00823   0.0066  0.0589  0.5000  -3.3206   0.0000   0.2341
   8.000   0.8416   0.01994   0.01136   0.0094  0.0443  0.5000  -4.0085   0.0000   0.2308
   9.000   0.9281   0.02390   0.01564   0.0128  0.0350  0.5000  -4.6637   0.0000   0.2271
  10.000   1.0095   0.02811   0.02040   0.0165  0.0298  0.5000  -5.3698   0.0000   0.2234
  11.000   1.0507   0.03780   0.03107   0.0230  0.0263  0.5000  -5.8559   0.0000   0.2168
  12.000   1.0421   0.04730   0.04153   0.0314  0.0247  0.5000  -6.1162   0.0000   0.2071
  13.000   0.9639   0.06862   0.06376   0.0230  0.0245  0.5000  -5.7876   0.0000   0.2114
  14.000   0.6916   0.15958   0.15509  -0.0281  0.0417  0.5000  -2.1015   0.0000   0.2775
  15.000   0.7230   0.17043   0.16598  -0.0302  0.0373  0.5000  -2.4249   0.0000   0.2773
  16.000   0.7209   0.19282   0.18832  -0.0424  0.0343  0.5000  -1.9784   0.0000   0.2935
  17.000   0.7476   0.20658   0.20214  -0.0486  0.0284  0.5000  -2.0062   0.0000   0.2984


