xflr5 v6.10.03

 Calculated polar for: NACA 0011

 1 1 Reynolds number fixed          Mach number fixed         

 xtrf =   0.500 (top)        0.500 (bottom)
 Mach =   0.080     Re =     0.610 e 6     Ncrit =   9.000

  alpha     CL        CD       CDp       Cm    Top Xtr Bot Xtr   Cpmin    Chinge    XCp    
 ------- -------- --------- --------- -------- ------- ------- -------- --------- ---------
  -5.000  -0.5567   0.01080   0.00318  -0.0013  0.5000  0.1412  -2.0988   0.0000   0.2423
  -4.000  -0.4508   0.00947   0.00236  -0.0004  0.5000  0.2678  -1.5516   0.0000   0.2443
  -3.000  -0.3433   0.00839   0.00181   0.0003  0.5000  0.4134  -1.1178   0.0000   0.2467
  -2.000  -0.2318   0.00783   0.00149   0.0007  0.5000  0.5000  -0.7790   0.0000   0.2489
  -1.000  -0.1159   0.00776   0.00128   0.0003  0.5000  0.5000  -0.5375   0.0000   0.2492
   0.000   0.0000   0.00774   0.00123  -0.0000  0.5000  0.5000  -0.3816   0.0000   1.4819
   1.000   0.1159   0.00776   0.00128  -0.0003  0.5000  0.5000  -0.5375   0.0000   0.2492
   2.000   0.2318   0.00783   0.00149  -0.0007  0.5000  0.5000  -0.7790   0.0000   0.2490
   3.000   0.3433   0.00839   0.00181  -0.0003  0.4134  0.5000  -1.1179   0.0000   0.2467
   4.000   0.4508   0.00947   0.00236   0.0004  0.2678  0.5000  -1.5516   0.0000   0.2443
   5.000   0.5567   0.01080   0.00318   0.0013  0.1412  0.5000  -2.0989   0.0000   0.2423
   6.000   0.6617   0.01224   0.00434   0.0023  0.0707  0.5000  -2.7185   0.0000   0.2403
   7.000   0.7652   0.01377   0.00587   0.0037  0.0447  0.5000  -3.4668   0.0000   0.2381
   8.000   0.8661   0.01548   0.00773   0.0054  0.0324  0.5000  -4.2616   0.0000   0.2357
   9.000   0.9585   0.01806   0.01056   0.0083  0.0255  0.5000  -5.0243   0.0000   0.2322
  10.000   1.0491   0.02044   0.01325   0.0111  0.0216  0.5000  -5.8879   0.0000   0.2291
  11.000   1.1197   0.02473   0.01798   0.0160  0.0178  0.5000  -6.7746   0.0000   0.2240
  12.000   1.1750   0.02938   0.02319   0.0222  0.0160  0.5000  -7.6081   0.0000   0.2180
  13.000   1.1897   0.03617   0.03056   0.0300  0.0151  0.5000  -8.1990   0.0000   0.2101
  14.000   1.1739   0.04835   0.04337   0.0295  0.0145  0.5000  -8.5168   0.0000   0.2082
  15.000   1.1085   0.07328   0.06901   0.0149  0.0144  0.5000  -8.2253   0.0000   0.2178
  17.000   0.7485   0.20435   0.20068  -0.0481  0.0187  0.5000  -2.1536   0.0000   0.2974


