xflr5 v6.10.03

 Calculated polar for: NACA 0011

 1 1 Reynolds number fixed          Mach number fixed         

 xtrf =   0.500 (top)        0.500 (bottom)
 Mach =   0.080     Re =     0.630 e 6     Ncrit =   9.000

  alpha     CL        CD       CDp       Cm    Top Xtr Bot Xtr   Cpmin    Chinge    XCp    
 ------- -------- --------- --------- -------- ------- ------- -------- --------- ---------
  -5.000  -0.5568   0.01074   0.00315  -0.0012  0.5000  0.1385  -2.0997   0.0000   0.2424
  -4.000  -0.4509   0.00941   0.00233  -0.0004  0.5000  0.2642  -1.5522   0.0000   0.2443
  -3.000  -0.3432   0.00834   0.00179   0.0003  0.5000  0.4080  -1.1180   0.0000   0.2467
  -2.000  -0.2319   0.00776   0.00147   0.0007  0.5000  0.5000  -0.7791   0.0000   0.2490
  -1.000  -0.1160   0.00769   0.00127   0.0003  0.5000  0.5000  -0.5375   0.0000   0.2493
   0.000   0.0000   0.00767   0.00121  -0.0000  0.5000  0.5000  -0.3816   0.0000   1.4914
   1.000   0.1160   0.00769   0.00127  -0.0003  0.5000  0.5000  -0.5375   0.0000   0.2493
   2.000   0.2319   0.00776   0.00147  -0.0007  0.5000  0.5000  -0.7791   0.0000   0.2490
   3.000   0.3432   0.00834   0.00179  -0.0003  0.4080  0.5000  -1.1180   0.0000   0.2467
   4.000   0.4509   0.00941   0.00233   0.0004  0.2642  0.5000  -1.5522   0.0000   0.2444
   5.000   0.5569   0.01075   0.00315   0.0012  0.1385  0.5000  -2.0998   0.0000   0.2424
   6.000   0.6621   0.01213   0.00429   0.0022  0.0700  0.5000  -2.7216   0.0000   0.2405
   7.000   0.7660   0.01363   0.00577   0.0036  0.0442  0.5000  -3.4731   0.0000   0.2383
   8.000   0.8671   0.01530   0.00759   0.0052  0.0320  0.5000  -4.2722   0.0000   0.2359
   9.000   0.9602   0.01779   0.01033   0.0080  0.0252  0.5000  -5.0424   0.0000   0.2325
  10.000   1.0511   0.02016   0.01299   0.0108  0.0212  0.5000  -5.9109   0.0000   0.2294
  11.000   1.1236   0.02422   0.01747   0.0155  0.0176  0.5000  -6.8180   0.0000   0.2245
  12.000   1.1812   0.02873   0.02252   0.0215  0.0157  0.5000  -7.6744   0.0000   0.2187
  13.000   1.1999   0.03503   0.02937   0.0294  0.0148  0.5000  -8.3104   0.0000   0.2108
  14.000   1.1899   0.04621   0.04114   0.0300  0.0142  0.5000  -8.6973   0.0000   0.2082
  15.000   1.1368   0.06837   0.06399   0.0177  0.0140  0.5000  -8.5632   0.0000   0.2156
  17.000   0.7483   0.20448   0.20084  -0.0483  0.0187  0.5000  -2.1385   0.0000   0.2976


