xflr5 v6.10.03

 Calculated polar for: NACA 0011

 1 1 Reynolds number fixed          Mach number fixed         

 xtrf =   0.500 (top)        0.500 (bottom)
 Mach =   0.080     Re =     0.330 e 6     Ncrit =   9.000

  alpha     CL        CD       CDp       Cm    Top Xtr Bot Xtr   Cpmin    Chinge    XCp    
 ------- -------- --------- --------- -------- ------- ------- -------- --------- ---------
  -5.000  -0.5532   0.01228   0.00398  -0.0023  0.5000  0.1982  -2.0734   0.0000   0.2404
  -4.000  -0.4507   0.01069   0.00303  -0.0009  0.5000  0.3586  -1.5401   0.0000   0.2433
  -3.000  -0.3451   0.00965   0.00242   0.0005  0.5000  0.5000  -1.1152   0.0000   0.2471
  -2.000  -0.2302   0.00945   0.00196   0.0003  0.5000  0.5000  -0.7755   0.0000   0.2476
  -1.000  -0.1151   0.00935   0.00168   0.0002  0.5000  0.5000  -0.5369   0.0000   0.2478
   0.000   0.0000   0.00932   0.00161  -0.0000  0.5000  0.5000  -0.3822   0.0000   1.9921
   1.000   0.1151   0.00935   0.00168  -0.0002  0.5000  0.5000  -0.5369   0.0000   0.2478
   2.000   0.2302   0.00945   0.00196  -0.0003  0.5000  0.5000  -0.7755   0.0000   0.2476
   3.000   0.3451   0.00965   0.00242  -0.0005  0.5000  0.5000  -1.1152   0.0000   0.2471
   4.000   0.4508   0.01069   0.00303   0.0009  0.3586  0.5000  -1.5402   0.0000   0.2433
   5.000   0.5532   0.01228   0.00398   0.0023  0.1982  0.5000  -2.0735   0.0000   0.2405
   6.000   0.6537   0.01426   0.00557   0.0039  0.0940  0.5000  -2.6538   0.0000   0.2378
   7.000   0.7507   0.01664   0.00790   0.0062  0.0577  0.5000  -3.3398   0.0000   0.2347
   8.000   0.8445   0.01934   0.01085   0.0090  0.0428  0.5000  -4.0405   0.0000   0.2314
   9.000   0.9312   0.02310   0.01493   0.0124  0.0340  0.5000  -4.7044   0.0000   0.2276
  10.000   1.0126   0.02713   0.01941   0.0160  0.0288  0.5000  -5.4327   0.0000   0.2239
  11.000   1.0604   0.03581   0.02907   0.0223  0.0254  0.5000  -5.9697   0.0000   0.2175
  12.000   1.0652   0.04422   0.03838   0.0306  0.0232  0.5000  -6.3476   0.0000   0.2084
  13.000   1.0101   0.06091   0.05591   0.0278  0.0226  0.5000  -6.2514   0.0000   0.2078
  15.000   0.7156   0.17262   0.16823  -0.0299  0.0363  0.5000  -2.3752   0.0000   0.2772
  16.000   0.7214   0.19244   0.18804  -0.0429  0.0310  0.5000  -1.9826   0.0000   0.2942
  17.000   0.7556   0.20408   0.19975  -0.0453  0.0273  0.5000  -2.2424   0.0000   0.2931


