xflr5 v6.10.03

 Calculated polar for: NACA 0011

 1 1 Reynolds number fixed          Mach number fixed         

 xtrf =   0.500 (top)        0.500 (bottom)
 Mach =   0.000     Re =     0.430 e 6     Ncrit =   9.000

  alpha     CL        CD       CDp       Cm    Top Xtr Bot Xtr   Cpmin    Chinge    XCp    
 ------- -------- --------- --------- -------- ------- ------- -------- --------- ---------
  -5.000  -0.5528   0.01155   0.00355  -0.0017  0.5000  0.1741  -2.0739   0.0000   0.2416
  -4.000  -0.4491   0.01008   0.00268  -0.0006  0.5000  0.3215  -1.5380   0.0000   0.2439
  -3.000  -0.3433   0.00900   0.00211   0.0005  0.5000  0.4729  -1.1120   0.0000   0.2471
  -2.000  -0.2300   0.00870   0.00172   0.0005  0.5000  0.5000  -0.7738   0.0000   0.2483
  -1.000  -0.1150   0.00862   0.00149   0.0003  0.5000  0.5000  -0.5350   0.0000   0.2485
   0.000   0.0000   0.00859   0.00142  -0.0000  0.5000  0.5000  -0.3805   0.0000   0.4594
   1.000   0.1150   0.00862   0.00149  -0.0003  0.5000  0.5000  -0.5350   0.0000   0.2485
   2.000   0.2300   0.00870   0.00172  -0.0005  0.5000  0.5000  -0.7738   0.0000   0.2483
   3.000   0.3433   0.00900   0.00211  -0.0005  0.4729  0.5000  -1.1120   0.0000   0.2471
   4.000   0.4491   0.01008   0.00268   0.0006  0.3215  0.5000  -1.5380   0.0000   0.2439
   5.000   0.5529   0.01155   0.00355   0.0016  0.1741  0.5000  -2.0740   0.0000   0.2416
   6.000   0.6551   0.01326   0.00491   0.0029  0.0845  0.5000  -2.6688   0.0000   0.2394
   7.000   0.7558   0.01507   0.00670   0.0046  0.0524  0.5000  -3.3849   0.0000   0.2369
   8.000   0.8496   0.01761   0.00939   0.0071  0.0369  0.5000  -4.1067   0.0000   0.2336
   9.000   0.9428   0.01997   0.01203   0.0096  0.0300  0.5000  -4.8528   0.0000   0.2307
  10.000   1.0206   0.02441   0.01694   0.0138  0.0256  0.5000  -5.5444   0.0000   0.2262
  11.000   1.0944   0.02821   0.02119   0.0180  0.0216  0.5000  -6.4144   0.0000   0.2220
  12.000   1.1032   0.03821   0.03206   0.0271  0.0188  0.5000  -6.7912   0.0000   0.2125
  13.000   1.0907   0.04819   0.04278   0.0313  0.0185  0.5000  -7.0968   0.0000   0.2067
  14.000   1.0220   0.07121   0.06659   0.0190  0.0185  0.5000  -6.8051   0.0000   0.2148
  15.000   0.1929   0.03829   0.03497   0.0252  0.0403  0.5000  -0.7153   0.0000   0.1311
  16.000   0.2336   0.04691   0.04360   0.0215  0.0373  0.5000  -0.9210   0.0000   0.1651
  17.000   0.2517   0.05999   0.05667   0.0130  0.0330  0.5000  -0.7532   0.0000   0.2053


