xflr5 v6.10.03

 Calculated polar for: NACA 0011

 1 1 Reynolds number fixed          Mach number fixed         

 xtrf =   0.500 (top)        0.500 (bottom)
 Mach =   0.000     Re =     0.230 e 6     Ncrit =   9.000

  alpha     CL        CD       CDp       Cm    Top Xtr Bot Xtr   Cpmin    Chinge    XCp    
 ------- -------- --------- --------- -------- ------- ------- -------- --------- ---------
  -5.000  -0.5494   0.01329   0.00460  -0.0029  0.5000  0.2449  -2.0443   0.0000   0.2393
  -4.000  -0.4498   0.01165   0.00362  -0.0009  0.5000  0.4200  -1.5246   0.0000   0.2432
  -3.000  -0.3421   0.01085   0.00285   0.0002  0.5000  0.5000  -1.1032   0.0000   0.2462
  -2.000  -0.2282   0.01061   0.00231   0.0001  0.5000  0.5000  -0.7697   0.0000   0.2467
  -1.000  -0.1141   0.01049   0.00199   0.0001  0.5000  0.5000  -0.5343   0.0000   0.2470
   0.000  -0.0000   0.01045   0.00191   0.0000  0.5000  0.5000  -0.3811   0.0000   0.4230
   1.000   0.1141   0.01049   0.00199  -0.0001  0.5000  0.5000  -0.5343   0.0000   0.2470
   2.000   0.2282   0.01061   0.00231  -0.0001  0.5000  0.5000  -0.7697   0.0000   0.2467
   3.000   0.3421   0.01085   0.00285  -0.0002  0.5000  0.5000  -1.1032   0.0000   0.2463
   4.000   0.4498   0.01165   0.00362   0.0009  0.4200  0.5000  -1.5247   0.0000   0.2432
   5.000   0.5494   0.01329   0.00460   0.0029  0.2449  0.5000  -2.0444   0.0000   0.2394
   6.000   0.6456   0.01571   0.00648   0.0050  0.1142  0.5000  -2.5899   0.0000   0.2361
   7.000   0.7389   0.01860   0.00928   0.0077  0.0701  0.5000  -3.2329   0.0000   0.2326
   8.000   0.8306   0.02210   0.01304   0.0107  0.0526  0.5000  -3.8692   0.0000   0.2292
   9.000   0.9180   0.02644   0.01779   0.0137  0.0413  0.5000  -4.4843   0.0000   0.2260
  10.000   0.9894   0.03400   0.02609   0.0178  0.0356  0.5000  -5.0293   0.0000   0.2220
  11.000   1.0205   0.04398   0.03740   0.0249  0.0325  0.5000  -5.3786   0.0000   0.2145
  12.000   0.9484   0.06082   0.05542   0.0302  0.0327  0.5000  -5.1069   0.0000   0.2055
  13.000   0.7690   0.11259   0.10776  -0.0043  0.0363  0.5000  -3.5631   0.0000   0.2419
  14.000   0.6840   0.16248   0.15755  -0.0286  0.0533  0.5000  -1.9539   0.0000   0.2790
  15.000   0.7170   0.17596   0.17107  -0.0282  0.0471  0.5000  -2.2759   0.0000   0.2751
  16.000   0.7162   0.19434   0.18941  -0.0428  0.0415  0.5000  -1.8834   0.0000   0.2946
  17.000   0.7521   0.20959   0.20474  -0.0435  0.0364  0.5000  -2.1044   0.0000   0.2913


