xflr5 v6.10.03

 Calculated polar for: NACA 0011

 1 1 Reynolds number fixed          Mach number fixed         

 xtrf =   0.500 (top)        0.500 (bottom)
 Mach =   0.000     Re =     0.750 e 6     Ncrit =   9.000

  alpha     CL        CD       CDp       Cm    Top Xtr Bot Xtr   Cpmin    Chinge    XCp    
 ------- -------- --------- --------- -------- ------- ------- -------- --------- ---------
  -5.000  -0.5559   0.01032   0.00294  -0.0008  0.5000  0.1301  -2.0940   0.0000   0.2431
  -4.000  -0.4495   0.00909   0.00218  -0.0002  0.5000  0.2453  -1.5472   0.0000   0.2448
  -3.000  -0.3416   0.00806   0.00165   0.0004  0.5000  0.3831  -1.1133   0.0000   0.2469
  -2.000  -0.2314   0.00737   0.00135   0.0008  0.5000  0.5000  -0.7766   0.0000   0.2495
  -1.000  -0.1157   0.00731   0.00117   0.0004  0.5000  0.5000  -0.5355   0.0000   0.2497
   0.000   0.0000   0.00729   0.00113  -0.0000  0.5000  0.5000  -0.3800   0.0000   0.4560
   1.000   0.1157   0.00731   0.00117  -0.0004  0.5000  0.5000  -0.5355   0.0000   0.2497
   2.000   0.2314   0.00737   0.00135  -0.0008  0.5000  0.5000  -0.7766   0.0000   0.2495
   3.000   0.3416   0.00806   0.00165  -0.0004  0.3831  0.5000  -1.1133   0.0000   0.2469
   4.000   0.4495   0.00909   0.00218   0.0002  0.2453  0.5000  -1.5473   0.0000   0.2448
   5.000   0.5560   0.01032   0.00294   0.0008  0.1300  0.5000  -2.0941   0.0000   0.2431
   6.000   0.6616   0.01160   0.00397   0.0017  0.0669  0.5000  -2.7187   0.0000   0.2413
   7.000   0.7663   0.01291   0.00523   0.0027  0.0420  0.5000  -3.4776   0.0000   0.2394
   8.000   0.8684   0.01442   0.00684   0.0041  0.0302  0.5000  -4.2845   0.0000   0.2372
   9.000   0.9654   0.01638   0.00905   0.0062  0.0239  0.5000  -5.0875   0.0000   0.2345
  10.000   1.0483   0.01978   0.01278   0.0099  0.0189  0.5000  -5.8674   0.0000   0.2302
  11.000   1.1404   0.02147   0.01472   0.0122  0.0165  0.5000  -6.9650   0.0000   0.2277
  12.000   1.2126   0.02474   0.01833   0.0166  0.0145  0.5000  -7.9643   0.0000   0.2232
  13.000   1.2442   0.02999   0.02405   0.0250  0.0133  0.5000  -8.7079   0.0000   0.2152
  14.000   1.2226   0.04112   0.03590   0.0301  0.0127  0.5000  -8.9888   0.0000   0.2089
  15.000   1.1597   0.06312   0.05867   0.0200  0.0124  0.5000  -8.7831   0.0000   0.2141
  16.000   1.0793   0.09374   0.08984   0.0015  0.0125  0.5000  -8.2363   0.0000   0.2280


