xflr5 v6.10.03

 Calculated polar for: NACA 0011

 1 1 Reynolds number fixed          Mach number fixed         

 xtrf =   0.500 (top)        0.500 (bottom)
 Mach =   0.000     Re =     0.730 e 6     Ncrit =   9.000

  alpha     CL        CD       CDp       Cm    Top Xtr Bot Xtr   Cpmin    Chinge    XCp    
 ------- -------- --------- --------- -------- ------- ------- -------- --------- ---------
  -5.000  -0.5558   0.01038   0.00296  -0.0009  0.5000  0.1319  -2.0932   0.0000   0.2430
  -4.000  -0.4496   0.00912   0.00220  -0.0002  0.5000  0.2491  -1.5470   0.0000   0.2448
  -3.000  -0.3416   0.00810   0.00167   0.0004  0.5000  0.3875  -1.1132   0.0000   0.2468
  -2.000  -0.2313   0.00743   0.00137   0.0008  0.5000  0.5000  -0.7765   0.0000   0.2494
  -1.000  -0.1157   0.00736   0.00119   0.0004  0.5000  0.5000  -0.5355   0.0000   0.2497
   0.000   0.0000   0.00734   0.00114  -0.0000  0.5000  0.5000  -0.3800   0.0000   0.4552
   1.000   0.1157   0.00736   0.00119  -0.0004  0.5000  0.5000  -0.5355   0.0000   0.2497
   2.000   0.2313   0.00743   0.00137  -0.0008  0.5000  0.5000  -0.7765   0.0000   0.2494
   3.000   0.3416   0.00810   0.00167  -0.0004  0.3875  0.5000  -1.1132   0.0000   0.2469
   4.000   0.4496   0.00912   0.00220   0.0002  0.2491  0.5000  -1.5470   0.0000   0.2448
   5.000   0.5558   0.01038   0.00296   0.0009  0.1319  0.5000  -2.0932   0.0000   0.2430
   6.000   0.6613   0.01167   0.00401   0.0017  0.0676  0.5000  -2.7166   0.0000   0.2412
   7.000   0.7659   0.01300   0.00530   0.0028  0.0425  0.5000  -3.4735   0.0000   0.2393
   8.000   0.8678   0.01452   0.00691   0.0042  0.0306  0.5000  -4.2789   0.0000   0.2371
   9.000   0.9642   0.01656   0.00920   0.0064  0.0241  0.5000  -5.0751   0.0000   0.2343
  10.000   1.0514   0.01938   0.01229   0.0095  0.0195  0.5000  -5.9007   0.0000   0.2306
  11.000   1.1378   0.02179   0.01503   0.0125  0.0167  0.5000  -6.9372   0.0000   0.2274
  12.000   1.2086   0.02516   0.01877   0.0171  0.0147  0.5000  -7.9201   0.0000   0.2228
  13.000   1.2428   0.03015   0.02419   0.0252  0.0136  0.5000  -8.6917   0.0000   0.2151
  14.000   1.2291   0.04039   0.03510   0.0301  0.0129  0.5000  -9.0528   0.0000   0.2090
  15.000   1.1729   0.06107   0.05653   0.0212  0.0126  0.5000  -8.9224   0.0000   0.2132
  16.000   1.0921   0.09130   0.08733   0.0030  0.0127  0.5000  -8.3872   0.0000   0.2266


