xflr5 v6.10.03

 Calculated polar for: NACA 0011

 1 1 Reynolds number fixed          Mach number fixed         

 xtrf =   0.500 (top)        0.500 (bottom)
 Mach =   0.000     Re =     0.590 e 6     Ncrit =   9.000

  alpha     CL        CD       CDp       Cm    Top Xtr Bot Xtr   Cpmin    Chinge    XCp    
 ------- -------- --------- --------- -------- ------- ------- -------- --------- ---------
  -5.000  -0.5547   0.01082   0.00318  -0.0012  0.5000  0.1473  -2.0861   0.0000   0.2425
  -4.000  -0.4493   0.00948   0.00237  -0.0003  0.5000  0.2761  -1.5437   0.0000   0.2444
  -3.000  -0.3420   0.00844   0.00182   0.0004  0.5000  0.4210  -1.1125   0.0000   0.2468
  -2.000  -0.2308   0.00791   0.00150   0.0007  0.5000  0.5000  -0.7755   0.0000   0.2490
  -1.000  -0.1154   0.00784   0.00130   0.0003  0.5000  0.5000  -0.5353   0.0000   0.2492
   0.000   0.0000   0.00781   0.00124  -0.0000  0.5000  0.5000  -0.3802   0.0000   0.4558
   1.000   0.1154   0.00784   0.00130  -0.0003  0.5000  0.5000  -0.5353   0.0000   0.2492
   2.000   0.2308   0.00791   0.00150  -0.0007  0.5000  0.5000  -0.7755   0.0000   0.2490
   3.000   0.3421   0.00844   0.00182  -0.0004  0.4210  0.5000  -1.1125   0.0000   0.2468
   4.000   0.4494   0.00948   0.00237   0.0003  0.2761  0.5000  -1.5437   0.0000   0.2445
   5.000   0.5547   0.01082   0.00318   0.0012  0.1473  0.5000  -2.0862   0.0000   0.2425
   6.000   0.6587   0.01231   0.00435   0.0022  0.0723  0.5000  -2.6977   0.0000   0.2405
   7.000   0.7616   0.01386   0.00589   0.0036  0.0457  0.5000  -3.4354   0.0000   0.2383
   8.000   0.8618   0.01556   0.00776   0.0052  0.0333  0.5000  -4.2180   0.0000   0.2359
   9.000   0.9534   0.01818   0.01060   0.0080  0.0260  0.5000  -4.9661   0.0000   0.2325
  10.000   1.0440   0.02051   0.01326   0.0107  0.0222  0.5000  -5.8137   0.0000   0.2295
  12.000   1.1737   0.02919   0.02289   0.0210  0.0164  0.5000  -7.5332   0.0000   0.2191
  13.000   1.1914   0.03567   0.02995   0.0290  0.0154  0.5000  -8.1307   0.0000   0.2111
  14.000   1.1789   0.04697   0.04188   0.0299  0.0149  0.5000  -8.4729   0.0000   0.2082
  15.000   1.1204   0.06987   0.06549   0.0172  0.0147  0.5000  -8.2749   0.0000   0.2160
  17.000   0.7484   0.20363   0.19992  -0.0477  0.0187  0.5000  -2.1798   0.0000   0.2968


