xflr5 v6.10.03

 Calculated polar for: NACA 0011

 1 1 Reynolds number fixed          Mach number fixed         

 xtrf =   0.500 (top)        0.500 (bottom)
 Mach =   0.000     Re =     0.270 e 6     Ncrit =   9.000

  alpha     CL        CD       CDp       Cm    Top Xtr Bot Xtr   Cpmin    Chinge    XCp    
 ------- -------- --------- --------- -------- ------- ------- -------- --------- ---------
  -5.000  -0.5504   0.01276   0.00428  -0.0025  0.5000  0.2261  -2.0531   0.0000   0.2400
  -4.000  -0.4493   0.01119   0.00332  -0.0009  0.5000  0.3939  -1.5280   0.0000   0.2432
  -3.000  -0.3429   0.01029   0.00264   0.0003  0.5000  0.5000  -1.1064   0.0000   0.2467
  -2.000  -0.2287   0.01007   0.00214   0.0002  0.5000  0.5000  -0.7709   0.0000   0.2471
  -1.000  -0.1144   0.00996   0.00184   0.0001  0.5000  0.5000  -0.5345   0.0000   0.2474
   0.000  -0.0000   0.00992   0.00176   0.0000  0.5000  0.5000  -0.3810   0.0000   0.4282
   1.000   0.1144   0.00996   0.00184  -0.0001  0.5000  0.5000  -0.5345   0.0000   0.2474
   2.000   0.2287   0.01007   0.00214  -0.0002  0.5000  0.5000  -0.7709   0.0000   0.2471
   3.000   0.3429   0.01029   0.00264  -0.0003  0.5000  0.5000  -1.1064   0.0000   0.2467
   4.000   0.4493   0.01119   0.00332   0.0009  0.3939  0.5000  -1.5280   0.0000   0.2432
   5.000   0.5504   0.01276   0.00428   0.0025  0.2261  0.5000  -2.0532   0.0000   0.2400
   6.000   0.6480   0.01503   0.00601   0.0044  0.1053  0.5000  -2.6123   0.0000   0.2371
   7.000   0.7442   0.01745   0.00842   0.0067  0.0646  0.5000  -3.2810   0.0000   0.2340
   8.000   0.8328   0.02122   0.01232   0.0099  0.0475  0.5000  -3.9203   0.0000   0.2301
   9.000   0.9220   0.02460   0.01602   0.0128  0.0376  0.5000  -4.5926   0.0000   0.2271
  10.000   0.9996   0.03044   0.02267   0.0168  0.0326  0.5000  -5.1901   0.0000   0.2231
  11.000   1.0566   0.03711   0.03001   0.0219  0.0285  0.5000  -5.8478   0.0000   0.2179
  12.000   1.0248   0.05143   0.04546   0.0310  0.0272  0.5000  -5.8584   0.0000   0.2071
  13.000   0.2615   0.00499   0.00105   0.0631  0.0448  0.5000  -2.3044   0.0000   0.0104
  14.000   0.1621   0.03196   0.02813   0.0294  0.0660  0.5000  -0.6608   0.0000   0.0841
  15.000   0.2089   0.04190   0.03807   0.0266  0.0589  0.5000  -0.7731   0.0000   0.1324
  16.000   0.2233   0.05095   0.04712   0.0186  0.0500  0.5000  -0.6825   0.0000   0.1757
  17.000   0.2669   0.06403   0.06020   0.0146  0.0468  0.5000  -0.8357   0.0000   0.2004


