xflr5 v6.10.03

 Calculated polar for: NACA 0011

 1 1 Reynolds number fixed          Mach number fixed         

 xtrf =   0.500 (top)        0.500 (bottom)
 Mach =   0.080     Re =     0.170 e 6     Ncrit =   9.000

  alpha     CL        CD       CDp       Cm    Top Xtr Bot Xtr   Cpmin    Chinge    XCp    
 ------- -------- --------- --------- -------- ------- ------- -------- --------- ---------
  -5.000  -0.5502   0.01447   0.00543  -0.0036  0.5000  0.2791  -2.0379   0.0000   0.2380
  -4.000  -0.4531   0.01274   0.00439  -0.0008  0.5000  0.4639  -1.5264   0.0000   0.2434
  -3.000  -0.3420   0.01205   0.00335  -0.0002  0.5000  0.5000  -1.1018   0.0000   0.2452
  -2.000  -0.2281   0.01176   0.00273  -0.0001  0.5000  0.5000  -0.7707   0.0000   0.2457
  -1.000  -0.1141   0.01162   0.00235  -0.0000  0.5000  0.5000  -0.5360   0.0000   0.2460
   0.000  -0.0000   0.01157   0.00225  -0.0000  0.5000  0.5000  -0.3829   0.0000   0.1337
   1.000   0.1141   0.01162   0.00235   0.0000  0.5000  0.5000  -0.5360   0.0000   0.2460
   2.000   0.2281   0.01176   0.00273   0.0001  0.5000  0.5000  -0.7707   0.0000   0.2457
   3.000   0.3420   0.01205   0.00335   0.0002  0.5000  0.5000  -1.1018   0.0000   0.2453
   4.000   0.4531   0.01274   0.00439   0.0008  0.4639  0.5000  -1.5264   0.0000   0.2434
   5.000   0.5503   0.01447   0.00543   0.0036  0.2791  0.5000  -2.0380   0.0000   0.2380
   6.000   0.6426   0.01739   0.00768   0.0065  0.1311  0.5000  -2.5538   0.0000   0.2337
   7.000   0.7347   0.02097   0.01116   0.0096  0.0824  0.5000  -3.1625   0.0000   0.2299
   8.000   0.8274   0.02528   0.01565   0.0124  0.0613  0.5000  -3.7787   0.0000   0.2271
   9.000   0.9141   0.03086   0.02179   0.0155  0.0490  0.5000  -4.3353   0.0000   0.2241
  10.000   0.9685   0.04100   0.03337   0.0212  0.0436  0.5000  -4.6694   0.0000   0.2182
  11.000   0.9425   0.05559   0.04941   0.0298  0.0420  0.5000  -4.6287   0.0000   0.2074
  12.000   0.8030   0.08875   0.08339   0.0112  0.0450  0.5000  -3.7578   0.0000   0.2234
  14.000   0.6773   0.16586   0.16035  -0.0292  0.0676  0.5000  -1.8356   0.0000   0.2804
  15.000   0.7060   0.17996   0.17449  -0.0327  0.0610  0.5000  -1.9808   0.0000   0.2825
  16.000   0.7128   0.19675   0.19125  -0.0429  0.0529  0.5000  -1.8027   0.0000   0.2953
  17.000   0.7562   0.21409   0.20869  -0.0425  0.0471  0.5000  -2.0459   0.0000   0.2901


