xflr5 v6.10.03

 Calculated polar for: NACA 0011

 1 1 Reynolds number fixed          Mach number fixed         

 xtrf =   0.500 (top)        0.500 (bottom)
 Mach =   0.080     Re =     0.410 e 6     Ncrit =   9.000

  alpha     CL        CD       CDp       Cm    Top Xtr Bot Xtr   Cpmin    Chinge    XCp    
 ------- -------- --------- --------- -------- ------- ------- -------- --------- ---------
  -5.000  -0.5544   0.01172   0.00366  -0.0019  0.5000  0.1749  -2.0833   0.0000   0.2412
  -4.000  -0.4507   0.01020   0.00275  -0.0007  0.5000  0.3252  -1.5446   0.0000   0.2436
  -3.000  -0.3445   0.00913   0.00217   0.0004  0.5000  0.4771  -1.1166   0.0000   0.2469
  -2.000  -0.2308   0.00884   0.00177   0.0005  0.5000  0.5000  -0.7768   0.0000   0.2481
  -1.000  -0.1154   0.00875   0.00153   0.0002  0.5000  0.5000  -0.5371   0.0000   0.2483
   0.000   0.0000   0.00872   0.00146  -0.0000  0.5000  0.5000  -0.3820   0.0000   1.5920
   1.000   0.1154   0.00875   0.00153  -0.0002  0.5000  0.5000  -0.5371   0.0000   0.2483
   2.000   0.2308   0.00884   0.00177  -0.0005  0.5000  0.5000  -0.7768   0.0000   0.2481
   3.000   0.3446   0.00913   0.00217  -0.0004  0.4771  0.5000  -1.1166   0.0000   0.2469
   4.000   0.4507   0.01020   0.00275   0.0007  0.3252  0.5000  -1.5447   0.0000   0.2436
   5.000   0.5545   0.01172   0.00366   0.0019  0.1748  0.5000  -2.0834   0.0000   0.2412
   6.000   0.6567   0.01349   0.00508   0.0033  0.0845  0.5000  -2.6791   0.0000   0.2388
   7.000   0.7573   0.01538   0.00697   0.0051  0.0526  0.5000  -3.3965   0.0000   0.2362
   8.000   0.8520   0.01786   0.00960   0.0076  0.0377  0.5000  -4.1298   0.0000   0.2330
   9.000   0.9429   0.02065   0.01271   0.0106  0.0304  0.5000  -4.8537   0.0000   0.2296
  10.000   1.0193   0.02550   0.01806   0.0150  0.0259  0.5000  -5.5338   0.0000   0.2250
  11.000   1.0886   0.02998   0.02311   0.0198  0.0220  0.5000  -6.3561   0.0000   0.2203
  12.000   1.1137   0.03701   0.03075   0.0277  0.0194  0.5000  -6.9474   0.0000   0.2122
  15.000   0.7119   0.17313   0.16900  -0.0346  0.0301  0.5000  -2.2394   0.0000   0.2842
  16.000   0.7307   0.18795   0.18383  -0.0385  0.0269  0.5000  -2.3402   0.0000   0.2869
  17.000   0.7434   0.20829   0.20415  -0.0506  0.0239  0.5000  -1.8580   0.0000   0.3017


