xflr5 v6.10.03

 Calculated polar for: NACA 0011

 1 1 Reynolds number fixed          Mach number fixed         

 xtrf =   0.500 (top)        0.500 (bottom)
 Mach =   0.080     Re =     0.950 e 6     Ncrit =   9.000

  alpha     CL        CD       CDp       Cm    Top Xtr Bot Xtr   Cpmin    Chinge    XCp    
 ------- -------- --------- --------- -------- ------- ------- -------- --------- ---------
  -5.000  -0.5591   0.00992   0.00278  -0.0007  0.5000  0.1115  -2.1131   0.0000   0.2433
  -4.000  -0.4514   0.00876   0.00205  -0.0001  0.5000  0.2135  -1.5583   0.0000   0.2450
  -3.000  -0.3423   0.00778   0.00154   0.0004  0.5000  0.3439  -1.1187   0.0000   0.2468
  -2.000  -0.2318   0.00700   0.00124   0.0007  0.5000  0.4775  -0.7798   0.0000   0.2493
  -1.000  -0.1164   0.00684   0.00107   0.0004  0.5000  0.5000  -0.5379   0.0000   0.2501
   0.000   0.0000   0.00682   0.00102  -0.0000  0.5000  0.5000  -0.3813   0.0000   2.1696
   1.000   0.1164   0.00684   0.00107  -0.0004  0.5000  0.5000  -0.5379   0.0000   0.2501
   2.000   0.2318   0.00700   0.00124  -0.0007  0.4775  0.5000  -0.7798   0.0000   0.2493
   3.000   0.3423   0.00778   0.00154  -0.0004  0.3439  0.5000  -1.1187   0.0000   0.2468
   4.000   0.4514   0.00876   0.00205   0.0001  0.2135  0.5000  -1.5583   0.0000   0.2450
   5.000   0.5591   0.00992   0.00278   0.0007  0.1115  0.5000  -2.1132   0.0000   0.2433
   6.000   0.6663   0.01109   0.00373   0.0015  0.0587  0.5000  -2.7518   0.0000   0.2416
   7.000   0.7722   0.01235   0.00493   0.0025  0.0362  0.5000  -3.5271   0.0000   0.2398
   8.000   0.8757   0.01378   0.00649   0.0039  0.0266  0.5000  -4.3517   0.0000   0.2376
   9.000   0.9772   0.01526   0.00812   0.0054  0.0213  0.5000  -5.2231   0.0000   0.2353
  10.000   1.0698   0.01759   0.01075   0.0081  0.0180  0.5000  -6.1105   0.0000   0.2320
  11.000   1.1634   0.01940   0.01275   0.0104  0.0148  0.5000  -7.2547   0.0000   0.2293
  12.000   1.2064   0.02582   0.01985   0.0186  0.0121  0.5000  -7.9632   0.0000   0.2215
  13.000   1.2462   0.03016   0.02460   0.0262  0.0119  0.5000  -8.8221   0.0000   0.2143
  14.000   1.2584   0.03769   0.03264   0.0305  0.0117  0.5000  -9.4720   0.0000   0.2093
  15.000   1.2383   0.05252   0.04803   0.0252  0.0114  0.5000  -9.7662   0.0000   0.2109
  16.000   1.1590   0.08120   0.07732   0.0082  0.0114  0.5000  -9.3028   0.0000   0.2220


