xflr5 v6.10.03

 Calculated polar for: NACA 0011

 1 1 Reynolds number fixed          Mach number fixed         

 xtrf =   0.500 (top)        0.500 (bottom)
 Mach =   0.000     Re =     0.990 e 6     Ncrit =   9.000

  alpha     CL        CD       CDp       Cm    Top Xtr Bot Xtr   Cpmin    Chinge    XCp    
 ------- -------- --------- --------- -------- ------- ------- -------- --------- ---------
  -5.000  -0.5572   0.00982   0.00271  -0.0005  0.5000  0.1110  -2.1019   0.0000   0.2436
  -4.000  -0.4498   0.00868   0.00201   0.0000  0.5000  0.2113  -1.5509   0.0000   0.2453
  -3.000  -0.3410   0.00771   0.00150   0.0004  0.5000  0.3407  -1.1137   0.0000   0.2470
  -2.000  -0.2309   0.00693   0.00121   0.0008  0.5000  0.4739  -0.7765   0.0000   0.2494
  -1.000  -0.1160   0.00676   0.00105   0.0005  0.5000  0.5000  -0.5358   0.0000   0.2503
   0.000   0.0000   0.00674   0.00101  -0.0000  0.5000  0.5000  -0.3798   0.0000   0.4576
   1.000   0.1160   0.00676   0.00105  -0.0005  0.5000  0.5000  -0.5358   0.0000   0.2503
   2.000   0.2309   0.00693   0.00121  -0.0008  0.4739  0.5000  -0.7765   0.0000   0.2494
   3.000   0.3410   0.00771   0.00150  -0.0004  0.3407  0.5000  -1.1137   0.0000   0.2470
   4.000   0.4498   0.00868   0.00201  -0.0000  0.2113  0.5000  -1.5510   0.0000   0.2453
   5.000   0.5573   0.00982   0.00271   0.0005  0.1111  0.5000  -2.1020   0.0000   0.2437
   6.000   0.6641   0.01095   0.00364   0.0012  0.0588  0.5000  -2.7366   0.0000   0.2420
   7.000   0.7698   0.01217   0.00479   0.0021  0.0362  0.5000  -3.5059   0.0000   0.2402
   8.000   0.8732   0.01354   0.00626   0.0033  0.0266  0.5000  -4.3246   0.0000   0.2382
   9.000   0.9746   0.01496   0.00782   0.0047  0.0212  0.5000  -5.1876   0.0000   0.2360
  10.000   1.0683   0.01711   0.01024   0.0071  0.0180  0.5000  -6.0748   0.0000   0.2330
  11.000   1.1628   0.01877   0.01206   0.0091  0.0148  0.5000  -7.2129   0.0000   0.2305
  12.000   1.2155   0.02432   0.01822   0.0161  0.0121  0.5000  -7.9967   0.0000   0.2236
  13.000   1.2660   0.02800   0.02228   0.0230  0.0118  0.5000  -8.9271   0.0000   0.2172
  14.000   1.2884   0.03398   0.02872   0.0290  0.0115  0.5000  -9.6692   0.0000   0.2111
  15.000   1.2831   0.04518   0.04043   0.0281  0.0112  0.5000  -10.1416   0.0000   0.2096
  16.000   1.2343   0.06684   0.06267   0.0164  0.0111  0.5000  -10.0872   0.0000   0.2160
  17.000   1.0984   0.10775   0.10422  -0.0069  0.0113  0.5000  -8.8398   0.0000   0.2337


