xflr5 v6.10.03

 Calculated polar for: NACA 0011

 1 1 Reynolds number fixed          Mach number fixed         

 xtrf =   0.500 (top)        0.500 (bottom)
 Mach =   0.000     Re =     0.410 e 6     Ncrit =   9.000

  alpha     CL        CD       CDp       Cm    Top Xtr Bot Xtr   Cpmin    Chinge    XCp    
 ------- -------- --------- --------- -------- ------- ------- -------- --------- ---------
  -5.000  -0.5525   0.01167   0.00362  -0.0017  0.5000  0.1786  -2.0719   0.0000   0.2414
  -4.000  -0.4492   0.01016   0.00273  -0.0006  0.5000  0.3294  -1.5372   0.0000   0.2438
  -3.000  -0.3434   0.00911   0.00216   0.0005  0.5000  0.4801  -1.1116   0.0000   0.2471
  -2.000  -0.2299   0.00883   0.00176   0.0005  0.5000  0.5000  -0.7735   0.0000   0.2482
  -1.000  -0.1150   0.00874   0.00152   0.0002  0.5000  0.5000  -0.5350   0.0000   0.2484
   0.000   0.0000   0.00872   0.00145  -0.0000  0.5000  0.5000  -0.3805   0.0000   0.4580
   1.000   0.1150   0.00874   0.00152  -0.0002  0.5000  0.5000  -0.5350   0.0000   0.2484
   2.000   0.2299   0.00883   0.00176  -0.0005  0.5000  0.5000  -0.7735   0.0000   0.2482
   4.000   0.4492   0.01016   0.00273   0.0006  0.3294  0.5000  -1.5372   0.0000   0.2438
   5.000   0.5526   0.01167   0.00362   0.0017  0.1785  0.5000  -2.0720   0.0000   0.2414
   6.000   0.6543   0.01345   0.00502   0.0031  0.0860  0.5000  -2.6627   0.0000   0.2391
   7.000   0.7547   0.01529   0.00687   0.0048  0.0535  0.5000  -3.3744   0.0000   0.2366
   8.000   0.8502   0.01759   0.00930   0.0071  0.0384  0.5000  -4.1099   0.0000   0.2337
   9.000   0.9403   0.02043   0.01245   0.0100  0.0307  0.5000  -4.8209   0.0000   0.2302
  10.000   1.0171   0.02515   0.01763   0.0142  0.0261  0.5000  -5.5007   0.0000   0.2258
  11.000   1.0889   0.02932   0.02235   0.0186  0.0222  0.5000  -6.3334   0.0000   0.2214
  12.000   1.1219   0.03587   0.02946   0.0259  0.0195  0.5000  -6.9716   0.0000   0.2140
  13.000   1.0620   0.05219   0.04687   0.0308  0.0189  0.5000  -6.8133   0.0000   0.2064
  15.000   0.7127   0.17251   0.16838  -0.0343  0.0300  0.5000  -2.2549   0.0000   0.2838
  17.000   0.7430   0.20779   0.20366  -0.0504  0.0238  0.5000  -1.8653   0.0000   0.3014


