xflr5 v6.10.03

 Calculated polar for: NACA 0011

 1 1 Reynolds number fixed          Mach number fixed         

 xtrf =   0.500 (top)        0.500 (bottom)
 Mach =   0.080     Re =     0.450 e 6     Ncrit =   9.000

  alpha     CL        CD       CDp       Cm    Top Xtr Bot Xtr   Cpmin    Chinge    XCp    
 ------- -------- --------- --------- -------- ------- ------- -------- --------- ---------
  -5.000  -0.5551   0.01148   0.00353  -0.0017  0.5000  0.1661  -2.0875   0.0000   0.2415
  -4.000  -0.4506   0.01002   0.00265  -0.0007  0.5000  0.3111  -1.5462   0.0000   0.2437
  -3.000  -0.3443   0.00893   0.00208   0.0004  0.5000  0.4617  -1.1171   0.0000   0.2468
  -2.000  -0.2310   0.00858   0.00170   0.0005  0.5000  0.5000  -0.7774   0.0000   0.2483
  -1.000  -0.1155   0.00850   0.00146   0.0003  0.5000  0.5000  -0.5372   0.0000   0.2486
   0.000   0.0000   0.00848   0.00140  -0.0000  0.5000  0.5000  -0.3819   0.0000   1.5784
   1.000   0.1155   0.00850   0.00146  -0.0003  0.5000  0.5000  -0.5372   0.0000   0.2486
   2.000   0.2310   0.00858   0.00170  -0.0005  0.5000  0.5000  -0.7774   0.0000   0.2483
   3.000   0.3443   0.00893   0.00208  -0.0004  0.4617  0.5000  -1.1171   0.0000   0.2469
   4.000   0.4506   0.01002   0.00265   0.0007  0.3111  0.5000  -1.5463   0.0000   0.2437
   5.000   0.5551   0.01148   0.00353   0.0017  0.1661  0.5000  -2.0876   0.0000   0.2415
   6.000   0.6581   0.01315   0.00487   0.0030  0.0811  0.5000  -2.6904   0.0000   0.2393
   7.000   0.7591   0.01500   0.00668   0.0047  0.0503  0.5000  -3.4149   0.0000   0.2367
   8.000   0.8537   0.01751   0.00939   0.0073  0.0360  0.5000  -4.1462   0.0000   0.2334
   9.000   0.9470   0.01991   0.01204   0.0100  0.0289  0.5000  -4.9072   0.0000   0.2303
  10.000   1.0262   0.02412   0.01676   0.0142  0.0248  0.5000  -5.6190   0.0000   0.2259
  11.000   1.0993   0.02787   0.02091   0.0185  0.0209  0.5000  -6.5172   0.0000   0.2215
  12.000   1.1092   0.03725   0.03119   0.0279  0.0186  0.5000  -6.9197   0.0000   0.2119
  13.000   1.0927   0.04812   0.04281   0.0314  0.0182  0.5000  -7.1878   0.0000   0.2066
  14.000   1.0215   0.07236   0.06785   0.0176  0.0181  0.5000  -6.8546   0.0000   0.2160
  16.000   0.7293   0.18859   0.18458  -0.0394  0.0267  0.5000  -2.2671   0.0000   0.2883
  17.000   0.7466   0.20662   0.20260  -0.0502  0.0213  0.5000  -1.9634   0.0000   0.3006


