xflr5 v6.10.03

 Calculated polar for: NACA 0011

 1 1 Reynolds number fixed          Mach number fixed         

 xtrf =   0.500 (top)        0.500 (bottom)
 Mach =   0.000     Re =     0.290 e 6     Ncrit =   9.000

  alpha     CL        CD       CDp       Cm    Top Xtr Bot Xtr   Cpmin    Chinge    XCp    
 ------- -------- --------- --------- -------- ------- ------- -------- --------- ---------
  -5.000  -0.5507   0.01257   0.00415  -0.0024  0.5000  0.2181  -2.0563   0.0000   0.2402
  -4.000  -0.4494   0.01098   0.00320  -0.0008  0.5000  0.3826  -1.5301   0.0000   0.2434
  -3.000  -0.3432   0.01005   0.00255   0.0004  0.5000  0.5000  -1.1077   0.0000   0.2469
  -2.000  -0.2289   0.00984   0.00206   0.0003  0.5000  0.5000  -0.7714   0.0000   0.2473
  -1.000  -0.1145   0.00974   0.00178   0.0002  0.5000  0.5000  -0.5346   0.0000   0.2476
   0.000   0.0000   0.00970   0.00171  -0.0000  0.5000  0.5000  -0.3809   0.0000   0.4962
   1.000   0.1145   0.00974   0.00178  -0.0002  0.5000  0.5000  -0.5346   0.0000   0.2476
   2.000   0.2289   0.00984   0.00206  -0.0003  0.5000  0.5000  -0.7714   0.0000   0.2473
   3.000   0.3432   0.01005   0.00255  -0.0004  0.5000  0.5000  -1.1077   0.0000   0.2469
   4.000   0.4494   0.01098   0.00320   0.0008  0.3826  0.5000  -1.5302   0.0000   0.2434
   5.000   0.5507   0.01257   0.00415   0.0024  0.2180  0.5000  -2.0564   0.0000   0.2403
   6.000   0.6490   0.01476   0.00585   0.0042  0.1017  0.5000  -2.6203   0.0000   0.2374
   7.000   0.7459   0.01707   0.00812   0.0063  0.0623  0.5000  -3.2989   0.0000   0.2345
   8.000   0.8356   0.02052   0.01177   0.0095  0.0462  0.5000  -3.9499   0.0000   0.2306
   9.000   0.9220   0.02467   0.01623   0.0127  0.0361  0.5000  -4.5907   0.0000   0.2272
  10.000   1.0039   0.02898   0.02121   0.0163  0.0312  0.5000  -5.2680   0.0000   0.2236
  11.000   1.0475   0.03889   0.03197   0.0221  0.0271  0.5000  -5.7711   0.0000   0.2176
  12.000   1.0363   0.04862   0.04273   0.0308  0.0260  0.5000  -5.9981   0.0000   0.2076
  13.000   0.9599   0.06888   0.06389   0.0238  0.0258  0.5000  -5.7012   0.0000   0.2106
  15.000   0.1909   0.04092   0.03717   0.0239  0.0544  0.5000  -0.6195   0.0000   0.1370
  16.000   0.2343   0.05002   0.04629   0.0207  0.0481  0.5000  -0.8231   0.0000   0.1692
  17.000   0.2521   0.06217   0.05842   0.0124  0.0439  0.5000  -0.6933   0.0000   0.2074


