xflr5 v6.10.03

 Calculated polar for: NACA 0011

 1 1 Reynolds number fixed          Mach number fixed         

 xtrf =   0.500 (top)        0.500 (bottom)
 Mach =   0.080     Re =     0.790 e 6     Ncrit =   9.000

  alpha     CL        CD       CDp       Cm    Top Xtr Bot Xtr   Cpmin    Chinge    XCp    
 ------- -------- --------- --------- -------- ------- ------- -------- --------- ---------
  -5.000  -0.5581   0.01028   0.00293  -0.0009  0.5000  0.1232  -2.1073   0.0000   0.2429
  -4.000  -0.4513   0.00902   0.00217  -0.0002  0.5000  0.2366  -1.5560   0.0000   0.2448
  -3.000  -0.3426   0.00802   0.00164   0.0003  0.5000  0.3711  -1.1182   0.0000   0.2467
  -2.000  -0.2324   0.00726   0.00133   0.0008  0.5000  0.5000  -0.7802   0.0000   0.2495
  -1.000  -0.1162   0.00720   0.00115   0.0004  0.5000  0.5000  -0.5377   0.0000   0.2498
   0.000   0.0000   0.00718   0.00110  -0.0000  0.5000  0.5000  -0.3814   0.0000   1.6154
   1.000   0.1162   0.00720   0.00115  -0.0004  0.5000  0.5000  -0.5377   0.0000   0.2498
   2.000   0.2324   0.00726   0.00133  -0.0008  0.5000  0.5000  -0.7802   0.0000   0.2495
   3.000   0.3426   0.00802   0.00164  -0.0003  0.3711  0.5000  -1.1183   0.0000   0.2467
   4.000   0.4513   0.00902   0.00217   0.0002  0.2366  0.5000  -1.5560   0.0000   0.2448
   5.000   0.5581   0.01028   0.00293   0.0009  0.1232  0.5000  -2.1074   0.0000   0.2429
   6.000   0.6645   0.01153   0.00395   0.0018  0.0639  0.5000  -2.7397   0.0000   0.2412
   7.000   0.7699   0.01283   0.00520   0.0029  0.0401  0.5000  -3.5100   0.0000   0.2392
   8.000   0.8721   0.01442   0.00691   0.0044  0.0285  0.5000  -4.3213   0.0000   0.2369
   9.000   0.9711   0.01620   0.00894   0.0064  0.0231  0.5000  -5.1553   0.0000   0.2343
  10.000   1.0558   0.01943   0.01250   0.0101  0.0187  0.5000  -5.9634   0.0000   0.2301
  11.000   1.1476   0.02126   0.01459   0.0126  0.0159  0.5000  -7.0776   0.0000   0.2273
  12.000   1.2180   0.02474   0.01841   0.0174  0.0139  0.5000  -8.0851   0.0000   0.2225
  13.000   1.2319   0.03150   0.02578   0.0273  0.0128  0.5000  -8.6762   0.0000   0.2131
  14.000   1.1849   0.04650   0.04163   0.0292  0.0123  0.5000  -8.6982   0.0000   0.2087
  15.000   1.1113   0.07263   0.06848   0.0141  0.0122  0.5000  -8.3289   0.0000   0.2185
  16.000   1.0315   0.10480   0.10110  -0.0051  0.0124  0.5000  -7.7083   0.0000   0.2344


