xflr5 v6.10.03

 Calculated polar for: NACA 0011

 1 1 Reynolds number fixed          Mach number fixed         

 xtrf =   0.500 (top)        0.500 (bottom)
 Mach =   0.080     Re =     0.290 e 6     Ncrit =   9.000

  alpha     CL        CD       CDp       Cm    Top Xtr Bot Xtr   Cpmin    Chinge    XCp    
 ------- -------- --------- --------- -------- ------- ------- -------- --------- ---------
  -5.000  -0.5526   0.01261   0.00420  -0.0025  0.5000  0.2134  -2.0675   0.0000   0.2400
  -4.000  -0.4509   0.01102   0.00323  -0.0009  0.5000  0.3781  -1.5373   0.0000   0.2431
  -3.000  -0.3445   0.01006   0.00257   0.0004  0.5000  0.5000  -1.1128   0.0000   0.2468
  -2.000  -0.2298   0.00985   0.00208   0.0003  0.5000  0.5000  -0.7747   0.0000   0.2472
  -1.000  -0.1149   0.00974   0.00179   0.0001  0.5000  0.5000  -0.5367   0.0000   0.2475
   0.000   0.0000   0.00971   0.00171  -0.0000  0.5000  0.5000  -0.3823   0.0000   2.4219
   1.000   0.1149   0.00974   0.00179  -0.0001  0.5000  0.5000  -0.5367   0.0000   0.2475
   2.000   0.2298   0.00985   0.00208  -0.0003  0.5000  0.5000  -0.7747   0.0000   0.2472
   3.000   0.3445   0.01006   0.00257  -0.0004  0.5000  0.5000  -1.1128   0.0000   0.2468
   4.000   0.4509   0.01102   0.00323   0.0009  0.3781  0.5000  -1.5374   0.0000   0.2431
   5.000   0.5526   0.01261   0.00420   0.0025  0.2134  0.5000  -2.0676   0.0000   0.2400
   6.000   0.6514   0.01482   0.00592   0.0044  0.0998  0.5000  -2.6351   0.0000   0.2371
   7.000   0.7478   0.01726   0.00831   0.0067  0.0612  0.5000  -3.3150   0.0000   0.2339
   8.000   0.8383   0.02066   0.01195   0.0099  0.0458  0.5000  -3.9745   0.0000   0.2301
   9.000   0.9246   0.02491   0.01654   0.0132  0.0359  0.5000  -4.6170   0.0000   0.2266
  10.000   1.0053   0.02948   0.02180   0.0171  0.0309  0.5000  -5.2886   0.0000   0.2228
  11.000   1.0422   0.04001   0.03324   0.0234  0.0271  0.5000  -5.7469   0.0000   0.2162
  12.000   1.0189   0.05062   0.04487   0.0317  0.0262  0.5000  -5.8968   0.0000   0.2061
  13.000   0.9286   0.07483   0.06995   0.0198  0.0264  0.5000  -5.4426   0.0000   0.2140
  14.000   0.7019   0.15745   0.15290  -0.0229  0.0468  0.5000  -2.2978   0.0000   0.2693
  15.000   0.7091   0.17496   0.17039  -0.0340  0.0387  0.5000  -2.1487   0.0000   0.2837
  16.000   0.7303   0.19165   0.18710  -0.0377  0.0362  0.5000  -2.2048   0.0000   0.2861
  17.000   0.7422   0.20889   0.20432  -0.0502  0.0298  0.5000  -1.8509   0.0000   0.3013


