xflr5 v6.10.03

 Calculated polar for: NACA 0011

 1 1 Reynolds number fixed          Mach number fixed         

 xtrf =   0.500 (top)        0.500 (bottom)
 Mach =   0.080     Re =     0.990 e 6     Ncrit =   9.000

  alpha     CL        CD       CDp       Cm    Top Xtr Bot Xtr   Cpmin    Chinge    XCp    
 ------- -------- --------- --------- -------- ------- ------- -------- --------- ---------
  -5.000  -0.5592   0.00986   0.00275  -0.0007  0.5000  0.1086  -2.1141   0.0000   0.2434
  -4.000  -0.4514   0.00870   0.00203  -0.0000  0.5000  0.2084  -1.5588   0.0000   0.2451
  -3.000  -0.3423   0.00772   0.00151   0.0004  0.5000  0.3389  -1.1189   0.0000   0.2468
  -2.000  -0.2318   0.00694   0.00121   0.0007  0.5000  0.4718  -0.7798   0.0000   0.2492
  -1.000  -0.1165   0.00676   0.00105   0.0005  0.5000  0.5000  -0.5379   0.0000   0.2502
   0.000   0.0000   0.00674   0.00101  -0.0000  0.5000  0.5000  -0.3812   0.0000   2.4280
   1.000   0.1165   0.00676   0.00105  -0.0005  0.5000  0.5000  -0.5379   0.0000   0.2502
   2.000   0.2318   0.00694   0.00121  -0.0007  0.4718  0.5000  -0.7798   0.0000   0.2492
   3.000   0.3423   0.00772   0.00151  -0.0004  0.3389  0.5000  -1.1189   0.0000   0.2469
   4.000   0.4515   0.00870   0.00203   0.0000  0.2083  0.5000  -1.5588   0.0000   0.2451
   5.000   0.5592   0.00986   0.00275   0.0006  0.1086  0.5000  -2.1141   0.0000   0.2434
   6.000   0.6668   0.01098   0.00367   0.0014  0.0582  0.5000  -2.7551   0.0000   0.2418
   7.000   0.7729   0.01220   0.00484   0.0024  0.0360  0.5000  -3.5336   0.0000   0.2399
   8.000   0.8768   0.01359   0.00634   0.0037  0.0264  0.5000  -4.3629   0.0000   0.2378
   9.000   0.9780   0.01514   0.00804   0.0053  0.0207  0.5000  -5.2294   0.0000   0.2354
  10.000   1.0724   0.01726   0.01043   0.0078  0.0178  0.5000  -6.1378   0.0000   0.2324
  11.000   1.1660   0.01909   0.01244   0.0101  0.0145  0.5000  -7.2846   0.0000   0.2296
  12.000   1.2155   0.02489   0.01889   0.0176  0.0121  0.5000  -8.0582   0.0000   0.2224
  13.000   1.2598   0.02897   0.02337   0.0250  0.0118  0.5000  -8.9571   0.0000   0.2154
  14.000   1.2755   0.03592   0.03082   0.0302  0.0115  0.5000  -9.6476   0.0000   0.2098
  15.000   1.2600   0.04943   0.04487   0.0267  0.0112  0.5000  -10.0081   0.0000   0.2101
  16.000   1.1915   0.07561   0.07165   0.0115  0.0111  0.5000  -9.6947   0.0000   0.2195


