xflr5 v6.10.03

 Calculated polar for: NACA 0011

 1 1 Reynolds number fixed          Mach number fixed         

 xtrf =   0.500 (top)        0.500 (bottom)
 Mach =   0.080     Re =     0.590 e 6     Ncrit =   9.000

  alpha     CL        CD       CDp       Cm    Top Xtr Bot Xtr   Cpmin    Chinge    XCp    
 ------- -------- --------- --------- -------- ------- ------- -------- --------- ---------
  -5.000  -0.5566   0.01086   0.00321  -0.0013  0.5000  0.1440  -2.0978   0.0000   0.2422
  -4.000  -0.4509   0.00951   0.00239  -0.0004  0.5000  0.2724  -1.5512   0.0000   0.2442
  -3.000  -0.3433   0.00845   0.00184   0.0003  0.5000  0.4185  -1.1176   0.0000   0.2466
  -2.000  -0.2317   0.00791   0.00151   0.0006  0.5000  0.5000  -0.7788   0.0000   0.2489
  -1.000  -0.1159   0.00784   0.00130   0.0003  0.5000  0.5000  -0.5375   0.0000   0.2492
   0.000   0.0000   0.00781   0.00124  -0.0000  0.5000  0.5000  -0.3816   0.0000   1.4347
   1.000   0.1159   0.00784   0.00130  -0.0003  0.5000  0.5000  -0.5375   0.0000   0.2492
   2.000   0.2317   0.00791   0.00151  -0.0006  0.5000  0.5000  -0.7788   0.0000   0.2489
   3.000   0.3433   0.00845   0.00184  -0.0003  0.4185  0.5000  -1.1176   0.0000   0.2466
   4.000   0.4509   0.00951   0.00239   0.0004  0.2724  0.5000  -1.5513   0.0000   0.2442
   5.000   0.5566   0.01086   0.00321   0.0013  0.1440  0.5000  -2.0979   0.0000   0.2422
   6.000   0.6612   0.01234   0.00440   0.0024  0.0714  0.5000  -2.7151   0.0000   0.2402
   7.000   0.7645   0.01391   0.00597   0.0038  0.0452  0.5000  -3.4601   0.0000   0.2380
   8.000   0.8649   0.01567   0.00788   0.0056  0.0328  0.5000  -4.2505   0.0000   0.2355
   9.000   0.9565   0.01835   0.01082   0.0085  0.0258  0.5000  -5.0048   0.0000   0.2319
  10.000   1.0468   0.02078   0.01358   0.0114  0.0219  0.5000  -5.8605   0.0000   0.2287
  11.000   1.1154   0.02531   0.01856   0.0165  0.0180  0.5000  -6.7269   0.0000   0.2235
  12.000   1.1684   0.03006   0.02388   0.0229  0.0163  0.5000  -7.5394   0.0000   0.2173
  13.000   1.1792   0.03736   0.03181   0.0304  0.0154  0.5000  -8.0853   0.0000   0.2095
  14.000   1.1562   0.05079   0.04590   0.0288  0.0149  0.5000  -8.3198   0.0000   0.2085
  15.000   1.0745   0.07948   0.07534   0.0111  0.0149  0.5000  -7.8217   0.0000   0.2209
  17.000   0.7487   0.20420   0.20049  -0.0480  0.0187  0.5000  -2.1702   0.0000   0.2971


