xflr5 v6.10.03

 Calculated polar for: NACA 0011

 1 1 Reynolds number fixed          Mach number fixed         

 xtrf =   0.500 (top)        0.500 (bottom)
 Mach =   0.000     Re =     0.610 e 6     Ncrit =   9.000

  alpha     CL        CD       CDp       Cm    Top Xtr Bot Xtr   Cpmin    Chinge    XCp    
 ------- -------- --------- --------- -------- ------- ------- -------- --------- ---------
  -5.000  -0.5548   0.01075   0.00314  -0.0011  0.5000  0.1446  -2.0872   0.0000   0.2426
  -4.000  -0.4493   0.00943   0.00234  -0.0003  0.5000  0.2714  -1.5441   0.0000   0.2445
  -3.000  -0.3421   0.00837   0.00180   0.0004  0.5000  0.4163  -1.1128   0.0000   0.2468
  -2.000  -0.2309   0.00783   0.00148   0.0007  0.5000  0.5000  -0.7756   0.0000   0.2490
  -1.000  -0.1155   0.00776   0.00128   0.0003  0.5000  0.5000  -0.5354   0.0000   0.2493
   0.000   0.0000   0.00774   0.00122  -0.0000  0.5000  0.5000  -0.3802   0.0000   0.4559
   1.000   0.1155   0.00776   0.00128  -0.0003  0.5000  0.5000  -0.5354   0.0000   0.2493
   2.000   0.2309   0.00783   0.00148  -0.0007  0.5000  0.5000  -0.7756   0.0000   0.2490
   3.000   0.3421   0.00837   0.00180  -0.0004  0.4163  0.5000  -1.1128   0.0000   0.2468
   4.000   0.4493   0.00943   0.00234   0.0003  0.2715  0.5000  -1.5441   0.0000   0.2445
   5.000   0.5549   0.01075   0.00314   0.0011  0.1446  0.5000  -2.0873   0.0000   0.2426
   6.000   0.6592   0.01220   0.00429   0.0021  0.0717  0.5000  -2.7010   0.0000   0.2406
   7.000   0.7623   0.01371   0.00579   0.0034  0.0453  0.5000  -3.4419   0.0000   0.2385
   8.000   0.8629   0.01538   0.00761   0.0050  0.0328  0.5000  -4.2286   0.0000   0.2362
   9.000   0.9553   0.01789   0.01035   0.0077  0.0257  0.5000  -4.9854   0.0000   0.2328
  10.000   1.0463   0.02017   0.01294   0.0103  0.0219  0.5000  -5.8407   0.0000   0.2298
  12.000   1.1792   0.02853   0.02221   0.0204  0.0161  0.5000  -7.5934   0.0000   0.2197
  13.000   1.2010   0.03457   0.02880   0.0284  0.0151  0.5000  -8.2349   0.0000   0.2118
  14.000   1.1947   0.04488   0.03973   0.0302  0.0145  0.5000  -8.6488   0.0000   0.2083
  15.000   1.1487   0.06509   0.06059   0.0198  0.0143  0.5000  -8.6044   0.0000   0.2141


