xflr5 v6.10.03

 Calculated polar for: NACA 0011

 1 1 Reynolds number fixed          Mach number fixed         

 xtrf =   0.500 (top)        0.500 (bottom)
 Mach =   0.000     Re =     0.670 e 6     Ncrit =   9.000

  alpha     CL        CD       CDp       Cm    Top Xtr Bot Xtr   Cpmin    Chinge    XCp    
 ------- -------- --------- --------- -------- ------- ------- -------- --------- ---------
  -5.000  -0.5552   0.01057   0.00305  -0.0010  0.5000  0.1370  -2.0899   0.0000   0.2428
  -4.000  -0.4495   0.00926   0.00226  -0.0002  0.5000  0.2604  -1.5457   0.0000   0.2447
  -3.000  -0.3418   0.00823   0.00173   0.0004  0.5000  0.4005  -1.1129   0.0000   0.2468
  -2.000  -0.2311   0.00762   0.00142   0.0007  0.5000  0.5000  -0.7761   0.0000   0.2492
  -1.000  -0.1156   0.00755   0.00123   0.0004  0.5000  0.5000  -0.5354   0.0000   0.2495
   0.000   0.0000   0.00753   0.00118  -0.0000  0.5000  0.5000  -0.3801   0.0000   0.4548
   1.000   0.1156   0.00755   0.00123  -0.0004  0.5000  0.5000  -0.5354   0.0000   0.2495
   2.000   0.2311   0.00762   0.00142  -0.0007  0.5000  0.5000  -0.7761   0.0000   0.2492
   3.000   0.3418   0.00823   0.00173  -0.0004  0.4005  0.5000  -1.1130   0.0000   0.2468
   4.000   0.4495   0.00926   0.00226   0.0002  0.2603  0.5000  -1.5458   0.0000   0.2447
   5.000   0.5552   0.01057   0.00305   0.0010  0.1371  0.5000  -2.0900   0.0000   0.2428
   6.000   0.6604   0.01191   0.00414   0.0019  0.0698  0.5000  -2.7097   0.0000   0.2409
   7.000   0.7643   0.01332   0.00552   0.0031  0.0439  0.5000  -3.4593   0.0000   0.2389
   8.000   0.8657   0.01489   0.00721   0.0046  0.0317  0.5000  -4.2570   0.0000   0.2367
   9.000   0.9602   0.01716   0.00971   0.0070  0.0249  0.5000  -5.0349   0.0000   0.2336
  10.000   1.0514   0.01944   0.01224   0.0096  0.0209  0.5000  -5.8992   0.0000   0.2306
  11.000   1.1291   0.02287   0.01609   0.0136  0.0173  0.5000  -6.8440   0.0000   0.2263
  12.000   1.1948   0.02670   0.02035   0.0187  0.0153  0.5000  -7.7658   0.0000   0.2213
  13.000   1.2273   0.03174   0.02584   0.0265  0.0143  0.5000  -8.5204   0.0000   0.2138
  14.000   1.2282   0.04064   0.03530   0.0302  0.0137  0.5000  -9.0268   0.0000   0.2089
  15.000   1.1899   0.05853   0.05383   0.0229  0.0133  0.5000  -9.0917   0.0000   0.2122
  16.000   1.1057   0.08879   0.08473   0.0048  0.0133  0.5000  -8.5321   0.0000   0.2250


