xflr5 v6.10.03

 Calculated polar for: NACA 0011

 1 1 Reynolds number fixed          Mach number fixed         

 xtrf =   0.500 (top)        0.500 (bottom)
 Mach =   0.000     Re =     0.510 e 6     Ncrit =   9.000

  alpha     CL        CD       CDp       Cm    Top Xtr Bot Xtr   Cpmin    Chinge    XCp    
 ------- -------- --------- --------- -------- ------- ------- -------- --------- ---------
  -5.000  -0.5537   0.01116   0.00334  -0.0014  0.5000  0.1582  -2.0804   0.0000   0.2421
  -4.000  -0.4491   0.00975   0.00250  -0.0005  0.5000  0.2955  -1.5410   0.0000   0.2442
  -3.000  -0.3426   0.00868   0.00194   0.0004  0.5000  0.4448  -1.1123   0.0000   0.2469
  -2.000  -0.2305   0.00826   0.00160   0.0006  0.5000  0.5000  -0.7747   0.0000   0.2487
  -1.000  -0.1153   0.00818   0.00138   0.0003  0.5000  0.5000  -0.5352   0.0000   0.2489
   0.000   0.0000   0.00816   0.00132  -0.0000  0.5000  0.5000  -0.3803   0.0000   0.4572
   1.000   0.1153   0.00818   0.00138  -0.0003  0.5000  0.5000  -0.5352   0.0000   0.2489
   2.000   0.2305   0.00826   0.00160  -0.0006  0.5000  0.5000  -0.7747   0.0000   0.2487
   3.000   0.3426   0.00868   0.00194  -0.0004  0.4448  0.5000  -1.1123   0.0000   0.2469
   4.000   0.4491   0.00975   0.00250   0.0005  0.2955  0.5000  -1.5410   0.0000   0.2442
   5.000   0.5538   0.01116   0.00334   0.0014  0.1581  0.5000  -2.0805   0.0000   0.2421
   6.000   0.6573   0.01270   0.00457   0.0025  0.0782  0.5000  -2.6867   0.0000   0.2400
   7.000   0.7576   0.01460   0.00643   0.0042  0.0471  0.5000  -3.4024   0.0000   0.2374
   8.000   0.8564   0.01646   0.00848   0.0061  0.0350  0.5000  -4.1678   0.0000   0.2349
   9.000   0.9436   0.01969   0.01196   0.0094  0.0269  0.5000  -4.8678   0.0000   0.2310
  10.000   1.0331   0.02218   0.01485   0.0122  0.0237  0.5000  -5.6899   0.0000   0.2279
  11.000   1.0926   0.02817   0.02135   0.0178  0.0188  0.5000  -6.4345   0.0000   0.2222
  12.000   1.1469   0.03231   0.02604   0.0237  0.0177  0.5000  -7.2506   0.0000   0.2163
  13.000   1.1502   0.04059   0.03502   0.0307  0.0169  0.5000  -7.6941   0.0000   0.2087
  14.000   1.1106   0.05673   0.05192   0.0268  0.0165  0.5000  -7.7342   0.0000   0.2094
  15.000   0.9920   0.09440   0.09039   0.0021  0.0169  0.5000  -6.7790   0.0000   0.2294
  17.000   0.7595   0.19935   0.19553  -0.0464  0.0195  0.5000  -2.4369   0.0000   0.2939


