xflr5 v6.10.03

 Calculated polar for: NACA 0011

 1 1 Reynolds number fixed          Mach number fixed         

 xtrf =   0.500 (top)        0.500 (bottom)
 Mach =   0.080     Re =     0.270 e 6     Ncrit =   9.000

  alpha     CL        CD       CDp       Cm    Top Xtr Bot Xtr   Cpmin    Chinge    XCp    
 ------- -------- --------- --------- -------- ------- ------- -------- --------- ---------
  -5.000  -0.5520   0.01284   0.00433  -0.0027  0.5000  0.2211  -2.0634   0.0000   0.2397
  -4.000  -0.4509   0.01122   0.00335  -0.0010  0.5000  0.3898  -1.5355   0.0000   0.2430
  -3.000  -0.3442   0.01030   0.00266   0.0003  0.5000  0.5000  -1.1115   0.0000   0.2466
  -2.000  -0.2295   0.01008   0.00215   0.0002  0.5000  0.5000  -0.7742   0.0000   0.2470
  -1.000  -0.1148   0.00996   0.00185   0.0001  0.5000  0.5000  -0.5366   0.0000   0.2473
   0.000  -0.0000   0.00993   0.00176  -0.0000  0.5000  0.5000  -0.3824   0.0000   0.1949
   1.000   0.1148   0.00996   0.00185  -0.0001  0.5000  0.5000  -0.5366   0.0000   0.2473
   2.000   0.2296   0.01008   0.00215  -0.0002  0.5000  0.5000  -0.7742   0.0000   0.2470
   3.000   0.3442   0.01030   0.00266  -0.0003  0.5000  0.5000  -1.1115   0.0000   0.2466
   4.000   0.4509   0.01122   0.00335   0.0010  0.3898  0.5000  -1.5355   0.0000   0.2430
   5.000   0.5520   0.01284   0.00433   0.0027  0.2211  0.5000  -2.0635   0.0000   0.2397
   6.000   0.6496   0.01518   0.00614   0.0047  0.1026  0.5000  -2.6234   0.0000   0.2366
   7.000   0.7466   0.01757   0.00855   0.0070  0.0637  0.5000  -3.3001   0.0000   0.2335
   8.000   0.8347   0.02158   0.01271   0.0105  0.0470  0.5000  -3.9350   0.0000   0.2295
   9.000   0.9236   0.02520   0.01668   0.0134  0.0372  0.5000  -4.6047   0.0000   0.2264
  10.000   1.0006   0.03102   0.02335   0.0176  0.0323  0.5000  -5.2042   0.0000   0.2222
  11.000   1.0526   0.03815   0.03120   0.0232  0.0285  0.5000  -5.8313   0.0000   0.2166
  13.000   0.7332   0.12543   0.12081  -0.0123  0.0351  0.5000  -2.9890   0.0000   0.2537
  15.000   0.7013   0.17756   0.17286  -0.0356  0.0411  0.5000  -2.0003   0.0000   0.2868
  16.000   0.7376   0.18899   0.18437  -0.0367  0.0369  0.5000  -2.3203   0.0000   0.2841
  17.000   0.7397   0.21006   0.20538  -0.0506  0.0322  0.5000  -1.7842   0.0000   0.3021


