xflr5 v6.10.03

 Calculated polar for: NACA 0011

 1 1 Reynolds number fixed          Mach number fixed         

 xtrf =   0.500 (top)        0.500 (bottom)
 Mach =   0.080     Re =     0.490 e 6     Ncrit =   9.000

  alpha     CL        CD       CDp       Cm    Top Xtr Bot Xtr   Cpmin    Chinge    XCp    
 ------- -------- --------- --------- -------- ------- ------- -------- --------- ---------
  -5.000  -0.5554   0.01130   0.00343  -0.0016  0.5000  0.1581  -2.0905   0.0000   0.2417
  -4.000  -0.4507   0.00985   0.00256  -0.0006  0.5000  0.2978  -1.5479   0.0000   0.2439
  -3.000  -0.3438   0.00878   0.00199   0.0003  0.5000  0.4479  -1.1170   0.0000   0.2467
  -2.000  -0.2312   0.00836   0.00164   0.0006  0.5000  0.5000  -0.7778   0.0000   0.2485
  -1.000  -0.1157   0.00828   0.00141   0.0003  0.5000  0.5000  -0.5373   0.0000   0.2488
   0.000   0.0000   0.00826   0.00135  -0.0000  0.5000  0.5000  -0.3818   0.0000   1.4322
   1.000   0.1157   0.00828   0.00141  -0.0003  0.5000  0.5000  -0.5373   0.0000   0.2488
   2.000   0.2312   0.00836   0.00164  -0.0006  0.5000  0.5000  -0.7778   0.0000   0.2485
   3.000   0.3438   0.00878   0.00199  -0.0003  0.4479  0.5000  -1.1170   0.0000   0.2467
   4.000   0.4507   0.00985   0.00256   0.0006  0.2979  0.5000  -1.5480   0.0000   0.2439
   5.000   0.5554   0.01130   0.00343   0.0016  0.1581  0.5000  -2.0906   0.0000   0.2417
   6.000   0.6591   0.01288   0.00470   0.0028  0.0779  0.5000  -2.6991   0.0000   0.2396
   7.000   0.7593   0.01486   0.00666   0.0047  0.0473  0.5000  -3.4174   0.0000   0.2368
   8.000   0.8578   0.01684   0.00884   0.0067  0.0351  0.5000  -4.1831   0.0000   0.2341
   9.000   0.9446   0.02020   0.01247   0.0102  0.0271  0.5000  -4.8840   0.0000   0.2301
  10.000   1.0325   0.02300   0.01570   0.0134  0.0239  0.5000  -5.6939   0.0000   0.2267
  11.000   1.0998   0.02762   0.02073   0.0183  0.0195  0.5000  -6.5450   0.0000   0.2217
  12.000   1.1314   0.03438   0.02825   0.0263  0.0180  0.5000  -7.1502   0.0000   0.2137
  13.000   1.1224   0.04425   0.03889   0.0316  0.0173  0.5000  -7.4878   0.0000   0.2071
  14.000   1.0655   0.06480   0.06022   0.0222  0.0171  0.5000  -7.3257   0.0000   0.2125
  17.000   0.7545   0.20268   0.19880  -0.0482  0.0200  0.5000  -2.2311   0.0000   0.2969


