xflr5 v6.10.03

 Calculated polar for: NACA 0011

 1 1 Reynolds number fixed          Mach number fixed         

 xtrf =   0.500 (top)        0.500 (bottom)
 Mach =   0.080     Re =     0.850 e 6     Ncrit =   9.000

  alpha     CL        CD       CDp       Cm    Top Xtr Bot Xtr   Cpmin    Chinge    XCp    
 ------- -------- --------- --------- -------- ------- ------- -------- --------- ---------
  -5.000  -0.5585   0.01014   0.00287  -0.0008  0.5000  0.1182  -2.1096   0.0000   0.2431
  -4.000  -0.4513   0.00892   0.00212  -0.0001  0.5000  0.2270  -1.5569   0.0000   0.2449
  -3.000  -0.3425   0.00791   0.00159   0.0004  0.5000  0.3610  -1.1186   0.0000   0.2468
  -2.000  -0.2324   0.00712   0.00129   0.0008  0.5000  0.4968  -0.7804   0.0000   0.2496
  -1.000  -0.1163   0.00705   0.00112   0.0004  0.5000  0.5000  -0.5378   0.0000   0.2499
   0.000   0.0000   0.00704   0.00107  -0.0000  0.5000  0.5000  -0.3813   0.0000   1.7465
   1.000   0.1163   0.00705   0.00112  -0.0004  0.5000  0.5000  -0.5378   0.0000   0.2499
   2.000   0.2324   0.00712   0.00129  -0.0008  0.4968  0.5000  -0.7804   0.0000   0.2496
   3.000   0.3425   0.00791   0.00159  -0.0004  0.3610  0.5000  -1.1186   0.0000   0.2468
   4.000   0.4513   0.00892   0.00212   0.0001  0.2270  0.5000  -1.5569   0.0000   0.2449
   5.000   0.5585   0.01014   0.00287   0.0008  0.1182  0.5000  -2.1097   0.0000   0.2431
   6.000   0.6651   0.01137   0.00387   0.0017  0.0612  0.5000  -2.7441   0.0000   0.2413
   7.000   0.7707   0.01265   0.00510   0.0027  0.0382  0.5000  -3.5164   0.0000   0.2394
   8.000   0.8722   0.01436   0.00696   0.0044  0.0269  0.5000  -4.3179   0.0000   0.2369
   9.000   0.9739   0.01577   0.00856   0.0059  0.0225  0.5000  -5.1873   0.0000   0.2348
  10.000   1.0619   0.01863   0.01173   0.0092  0.0184  0.5000  -6.0271   0.0000   0.2309
  11.000   1.1545   0.02045   0.01379   0.0117  0.0154  0.5000  -7.1537   0.0000   0.2282
  12.000   1.2214   0.02435   0.01806   0.0170  0.0132  0.5000  -8.1238   0.0000   0.2229
  13.000   1.2083   0.03370   0.02826   0.0287  0.0122  0.5000  -8.4453   0.0000   0.2116
  14.000   1.2026   0.04421   0.03935   0.0297  0.0120  0.5000  -8.8894   0.0000   0.2086
  15.000   1.1624   0.06417   0.05991   0.0189  0.0119  0.5000  -8.9125   0.0000   0.2149


