xflr5 v6.10.03

 Calculated polar for: NACA 0011

 1 1 Reynolds number fixed          Mach number fixed         

 xtrf =   0.500 (top)        0.500 (bottom)
 Mach =   0.080     Re =     0.910 e 6     Ncrit =   9.000

  alpha     CL        CD       CDp       Cm    Top Xtr Bot Xtr   Cpmin    Chinge    XCp    
 ------- -------- --------- --------- -------- ------- ------- -------- --------- ---------
  -5.000  -0.5589   0.01000   0.00281  -0.0007  0.5000  0.1144  -2.1119   0.0000   0.2432
  -4.000  -0.4513   0.00883   0.00208  -0.0001  0.5000  0.2180  -1.5575   0.0000   0.2450
  -3.000  -0.3425   0.00782   0.00156   0.0004  0.5000  0.3507  -1.1188   0.0000   0.2468
  -2.000  -0.2321   0.00705   0.00126   0.0008  0.5000  0.4847  -0.7800   0.0000   0.2494
  -1.000  -0.1164   0.00692   0.00109   0.0004  0.5000  0.5000  -0.5379   0.0000   0.2501
   0.000   0.0000   0.00690   0.00104  -0.0000  0.5000  0.5000  -0.3813   0.0000   1.9804
   1.000   0.1164   0.00692   0.00109  -0.0004  0.5000  0.5000  -0.5379   0.0000   0.2501
   2.000   0.2321   0.00705   0.00126  -0.0008  0.4847  0.5000  -0.7800   0.0000   0.2494
   3.000   0.3425   0.00782   0.00156  -0.0004  0.3507  0.5000  -1.1188   0.0000   0.2468
   4.000   0.4513   0.00883   0.00208   0.0001  0.2180  0.5000  -1.5576   0.0000   0.2450
   5.000   0.5589   0.01000   0.00281   0.0007  0.1144  0.5000  -2.1120   0.0000   0.2433
   6.000   0.6657   0.01121   0.00379   0.0015  0.0591  0.5000  -2.7482   0.0000   0.2415
   7.000   0.7713   0.01251   0.00504   0.0026  0.0363  0.5000  -3.5198   0.0000   0.2396
   8.000   0.8744   0.01399   0.00666   0.0041  0.0267  0.5000  -4.3393   0.0000   0.2373
   9.000   0.9761   0.01543   0.00827   0.0056  0.0218  0.5000  -5.2118   0.0000   0.2351
  10.000   1.0669   0.01797   0.01111   0.0085  0.0182  0.5000  -6.0801   0.0000   0.2316
  11.000   1.1602   0.01977   0.01312   0.0109  0.0150  0.5000  -7.2189   0.0000   0.2289
  12.000   1.2158   0.02489   0.01875   0.0176  0.0125  0.5000  -8.0621   0.0000   0.2224
  13.000   1.2305   0.03157   0.02607   0.0273  0.0120  0.5000  -8.6667   0.0000   0.2131
  14.000   1.2388   0.03986   0.03487   0.0305  0.0118  0.5000  -9.2686   0.0000   0.2088
  15.000   1.2128   0.05631   0.05190   0.0233  0.0116  0.5000  -9.4807   0.0000   0.2121
  16.000   1.1174   0.08856   0.08477   0.0040  0.0117  0.5000  -8.7967   0.0000   0.2256


