xflr5 v6.10.03

 Calculated polar for: NACA 0011

 1 1 Reynolds number fixed          Mach number fixed         

 xtrf =   0.500 (top)        0.500 (bottom)
 Mach =   0.000     Re =     0.190 e 6     Ncrit =   9.000

  alpha     CL        CD       CDp       Cm    Top Xtr Bot Xtr   Cpmin    Chinge    XCp    
 ------- -------- --------- --------- -------- ------- ------- -------- --------- ---------
  -5.000  -0.5486   0.01396   0.00506  -0.0033  0.5000  0.2700  -2.0339   0.0000   0.2386
  -4.000  -0.4506   0.01231   0.00405  -0.0009  0.5000  0.4508  -1.5204   0.0000   0.2433
  -3.000  -0.3412   0.01157   0.00314  -0.0000  0.5000  0.5000  -1.0992   0.0000   0.2457
  -2.000  -0.2275   0.01131   0.00255   0.0000  0.5000  0.5000  -0.7683   0.0000   0.2461
  -1.000  -0.1138   0.01118   0.00220   0.0000  0.5000  0.5000  -0.5340   0.0000   0.2464
   0.000  -0.0000   0.01113   0.00211   0.0000  0.5000  0.5000  -0.3814   0.0000   0.3966
   1.000   0.1138   0.01118   0.00220  -0.0000  0.5000  0.5000  -0.5340   0.0000   0.2464
   2.000   0.2276   0.01131   0.00255  -0.0000  0.5000  0.5000  -0.7683   0.0000   0.2461
   3.000   0.3412   0.01157   0.00314   0.0000  0.5000  0.5000  -1.0992   0.0000   0.2457
   5.000   0.5487   0.01396   0.00506   0.0033  0.2700  0.5000  -2.0339   0.0000   0.2386
   6.000   0.6425   0.01663   0.00710   0.0057  0.1259  0.5000  -2.5616   0.0000   0.2349
   7.000   0.7350   0.01979   0.01016   0.0086  0.0780  0.5000  -3.1842   0.0000   0.2312
   8.000   0.8255   0.02439   0.01493   0.0116  0.0582  0.5000  -3.7855   0.0000   0.2280
   9.000   0.9122   0.02967   0.02072   0.0146  0.0461  0.5000  -4.3565   0.0000   0.2251
  10.000   0.9829   0.03657   0.02867   0.0191  0.0402  0.5000  -4.8684   0.0000   0.2206
  11.000   1.0051   0.04898   0.04208   0.0253  0.0368  0.5000  -5.1821   0.0000   0.2137
  12.000   0.7153   0.11636   0.11124  -0.0059  0.0616  0.5000  -2.5499   0.0000   0.2468
  13.000   0.6737   0.14690   0.14165  -0.0215  0.0675  0.5000  -1.9479   0.0000   0.2701
  14.000   0.6940   0.16156   0.15633  -0.0256  0.0613  0.5000  -2.0536   0.0000   0.2739
  15.000   0.7006   0.18019   0.17493  -0.0336  0.0577  0.5000  -1.9397   0.0000   0.2842
  16.000   0.7302   0.19308   0.18787  -0.0379  0.0482  0.5000  -2.0931   0.0000   0.2867
  17.000   0.7361   0.21127   0.20600  -0.0500  0.0431  0.5000  -1.7422   0.0000   0.3018


