xflr5 v6.10.03

 Calculated polar for: NACA 0011

 1 1 Reynolds number fixed          Mach number fixed         

 xtrf =   0.500 (top)        0.500 (bottom)
 Mach =   0.000     Re =     0.470 e 6     Ncrit =   9.000

  alpha     CL        CD       CDp       Cm    Top Xtr Bot Xtr   Cpmin    Chinge    XCp    
 ------- -------- --------- --------- -------- ------- ------- -------- --------- ---------
  -5.000  -0.5534   0.01133   0.00344  -0.0015  0.5000  0.1658  -2.0777   0.0000   0.2418
  -4.000  -0.4491   0.00990   0.00258  -0.0005  0.5000  0.3084  -1.5396   0.0000   0.2440
  -3.000  -0.3429   0.00883   0.00202   0.0004  0.5000  0.4576  -1.1121   0.0000   0.2470
  -2.000  -0.2302   0.00847   0.00166   0.0006  0.5000  0.5000  -0.7743   0.0000   0.2485
  -1.000  -0.1152   0.00839   0.00143   0.0003  0.5000  0.5000  -0.5351   0.0000   0.2487
   0.000   0.0000   0.00836   0.00137  -0.0000  0.5000  0.5000  -0.3804   0.0000   0.4569
   1.000   0.1152   0.00839   0.00143  -0.0003  0.5000  0.5000  -0.5351   0.0000   0.2487
   2.000   0.2302   0.00847   0.00166  -0.0006  0.5000  0.5000  -0.7743   0.0000   0.2485
   3.000   0.3429   0.00883   0.00202  -0.0004  0.4576  0.5000  -1.1122   0.0000   0.2470
   4.000   0.4492   0.00990   0.00258   0.0005  0.3084  0.5000  -1.5397   0.0000   0.2440
   5.000   0.5534   0.01133   0.00344   0.0015  0.1658  0.5000  -2.0778   0.0000   0.2419
   6.000   0.6564   0.01294   0.00472   0.0027  0.0813  0.5000  -2.6789   0.0000   0.2397
   7.000   0.7574   0.01473   0.00645   0.0043  0.0501  0.5000  -3.4005   0.0000   0.2373
   8.000   0.8528   0.01706   0.00897   0.0066  0.0358  0.5000  -4.1350   0.0000   0.2342
   9.000   0.9455   0.01946   0.01159   0.0092  0.0285  0.5000  -4.8887   0.0000   0.2312
  10.000   1.0271   0.02319   0.01580   0.0130  0.0246  0.5000  -5.6210   0.0000   0.2271
  11.000   1.1026   0.02663   0.01958   0.0169  0.0205  0.5000  -6.5380   0.0000   0.2231
  12.000   1.1292   0.03456   0.02833   0.0253  0.0183  0.5000  -7.0650   0.0000   0.2147
  13.000   1.1255   0.04367   0.03817   0.0312  0.0177  0.5000  -7.4419   0.0000   0.2077
  14.000   1.0739   0.06252   0.05780   0.0239  0.0175  0.5000  -7.3458   0.0000   0.2111
  17.000   0.7497   0.20436   0.20042  -0.0491  0.0205  0.5000  -2.0884   0.0000   0.2988


