xflr5 v6.10.03

 Calculated polar for: NACA 0011

 1 1 Reynolds number fixed          Mach number fixed         

 xtrf =   0.500 (top)        0.500 (bottom)
 Mach =   0.080     Re =     0.350 e 6     Ncrit =   9.000

  alpha     CL        CD       CDp       Cm    Top Xtr Bot Xtr   Cpmin    Chinge    XCp    
 ------- -------- --------- --------- -------- ------- ------- -------- --------- ---------
  -5.000  -0.5537   0.01210   0.00389  -0.0021  0.5000  0.1921  -2.0766   0.0000   0.2407
  -4.000  -0.4507   0.01055   0.00295  -0.0008  0.5000  0.3494  -1.5413   0.0000   0.2433
  -3.000  -0.3453   0.00947   0.00236   0.0005  0.5000  0.5000  -1.1162   0.0000   0.2473
  -2.000  -0.2303   0.00928   0.00190   0.0004  0.5000  0.5000  -0.7759   0.0000   0.2477
  -1.000  -0.1152   0.00918   0.00164   0.0002  0.5000  0.5000  -0.5369   0.0000   0.2480
   0.000   0.0000   0.00915   0.00157  -0.0000  0.5000  0.5000  -0.3821   0.0000   1.8642
   1.000   0.1152   0.00918   0.00164  -0.0002  0.5000  0.5000  -0.5369   0.0000   0.2480
   2.000   0.2303   0.00928   0.00190  -0.0004  0.5000  0.5000  -0.7759   0.0000   0.2477
   3.000   0.3453   0.00947   0.00236  -0.0005  0.5000  0.5000  -1.1163   0.0000   0.2473
   4.000   0.4507   0.01055   0.00295   0.0008  0.3493  0.5000  -1.5414   0.0000   0.2434
   5.000   0.5537   0.01210   0.00389   0.0021  0.1921  0.5000  -2.0767   0.0000   0.2407
   6.000   0.6544   0.01406   0.00542   0.0037  0.0912  0.5000  -2.6609   0.0000   0.2381
   7.000   0.7527   0.01627   0.00763   0.0059  0.0564  0.5000  -3.3560   0.0000   0.2351
   8.000   0.8473   0.01880   0.01039   0.0085  0.0414  0.5000  -4.0715   0.0000   0.2319
   9.000   0.9342   0.02240   0.01432   0.0119  0.0330  0.5000  -4.7424   0.0000   0.2281
  10.000   1.0117   0.02727   0.01961   0.0159  0.0276  0.5000  -5.4346   0.0000   0.2240
  11.000   1.0682   0.03421   0.02746   0.0217  0.0245  0.5000  -6.0679   0.0000   0.2182
  12.000   1.0880   0.04106   0.03505   0.0295  0.0220  0.5000  -6.5976   0.0000   0.2100
  13.000   1.0541   0.05420   0.04896   0.0307  0.0212  0.5000  -6.7127   0.0000   0.2062
  15.000   0.7144   0.17294   0.16862  -0.0306  0.0362  0.5000  -2.3402   0.0000   0.2784
  16.000   0.7254   0.19074   0.18642  -0.0421  0.0294  0.5000  -2.0859   0.0000   0.2926
  17.000   0.7492   0.20686   0.20258  -0.0460  0.0269  0.5000  -2.1132   0.0000   0.2947


