xflr5 v6.10.03

 Calculated polar for: NACA 0011

 1 1 Reynolds number fixed          Mach number fixed         

 xtrf =   0.500 (top)        0.500 (bottom)
 Mach =   0.000     Re =     0.490 e 6     Ncrit =   9.000

  alpha     CL        CD       CDp       Cm    Top Xtr Bot Xtr   Cpmin    Chinge    XCp    
 ------- -------- --------- --------- -------- ------- ------- -------- --------- ---------
  -5.000  -0.5536   0.01124   0.00339  -0.0014  0.5000  0.1619  -2.0792   0.0000   0.2420
  -4.000  -0.4492   0.00981   0.00254  -0.0005  0.5000  0.3019  -1.5405   0.0000   0.2441
  -2.000  -0.2304   0.00836   0.00163   0.0006  0.5000  0.5000  -0.7745   0.0000   0.2486
  -1.000  -0.1152   0.00828   0.00140   0.0003  0.5000  0.5000  -0.5352   0.0000   0.2488
   0.000   0.0000   0.00826   0.00134  -0.0000  0.5000  0.5000  -0.3803   0.0000   0.4568
   1.000   0.1152   0.00828   0.00140  -0.0003  0.5000  0.5000  -0.5352   0.0000   0.2488
   2.000   0.2304   0.00836   0.00163  -0.0006  0.5000  0.5000  -0.7745   0.0000   0.2486
   4.000   0.4492   0.00981   0.00254   0.0005  0.3019  0.5000  -1.5405   0.0000   0.2441
   5.000   0.5536   0.01124   0.00339   0.0014  0.1619  0.5000  -2.0792   0.0000   0.2420
   6.000   0.6569   0.01281   0.00464   0.0026  0.0797  0.5000  -2.6830   0.0000   0.2399
   7.000   0.7577   0.01463   0.00640   0.0042  0.0487  0.5000  -3.4037   0.0000   0.2374
   8.000   0.8547   0.01674   0.00871   0.0063  0.0355  0.5000  -4.1524   0.0000   0.2346
   9.000   0.9445   0.01958   0.01178   0.0093  0.0275  0.5000  -4.8783   0.0000   0.2311
  10.000   1.0301   0.02267   0.01531   0.0126  0.0242  0.5000  -5.6560   0.0000   0.2275
  11.000   1.1029   0.02651   0.01949   0.0168  0.0199  0.5000  -6.5506   0.0000   0.2232
  12.000   1.1386   0.03333   0.02708   0.0245  0.0180  0.5000  -7.1641   0.0000   0.2155
  13.000   1.1384   0.04205   0.03651   0.0310  0.0173  0.5000  -7.5729   0.0000   0.2082
  14.000   1.0929   0.05948   0.05472   0.0255  0.0170  0.5000  -7.5460   0.0000   0.2101
  15.000   0.9450   0.10465   0.10072  -0.0042  0.0177  0.5000  -6.2127   0.0000   0.2362
  16.000   0.7268   0.18947   0.18554  -0.0424  0.0230  0.5000  -2.1142   0.0000   0.2929
  17.000   0.7546   0.20200   0.19812  -0.0479  0.0200  0.5000  -2.2495   0.0000   0.2965


