xflr5 v6.10.03

 Calculated polar for: NACA 0011

 1 1 Reynolds number fixed          Mach number fixed         

 xtrf =   0.500 (top)        0.500 (bottom)
 Mach =   0.000     Re =     0.910 e 6     Ncrit =   9.000

  alpha     CL        CD       CDp       Cm    Top Xtr Bot Xtr   Cpmin    Chinge    XCp    
 ------- -------- --------- --------- -------- ------- ------- -------- --------- ---------
  -5.000  -0.5568   0.00997   0.00278  -0.0006  0.5000  0.1165  -2.0995   0.0000   0.2435
  -4.000  -0.4496   0.00881   0.00206  -0.0000  0.5000  0.2204  -1.5496   0.0000   0.2451
  -3.000  -0.3413   0.00780   0.00154   0.0004  0.5000  0.3535  -1.1138   0.0000   0.2470
  -2.000  -0.2313   0.00703   0.00125   0.0008  0.5000  0.4873  -0.7769   0.0000   0.2495
  -1.000  -0.1159   0.00692   0.00108   0.0004  0.5000  0.5000  -0.5357   0.0000   0.2501
   0.000   0.0000   0.00690   0.00104  -0.0000  0.5000  0.5000  -0.3799   0.0000   0.4573
   1.000   0.1159   0.00692   0.00108  -0.0004  0.5000  0.5000  -0.5357   0.0000   0.2501
   2.000   0.2313   0.00703   0.00125  -0.0008  0.4873  0.5000  -0.7769   0.0000   0.2495
   3.000   0.3413   0.00780   0.00154  -0.0004  0.3535  0.5000  -1.1138   0.0000   0.2470
   4.000   0.4497   0.00881   0.00206   0.0000  0.2204  0.5000  -1.5496   0.0000   0.2451
   5.000   0.5569   0.00997   0.00278   0.0006  0.1164  0.5000  -2.0996   0.0000   0.2435
   6.000   0.6633   0.01117   0.00374   0.0014  0.0605  0.5000  -2.7308   0.0000   0.2418
   7.000   0.7686   0.01241   0.00492   0.0023  0.0374  0.5000  -3.4970   0.0000   0.2400
   8.000   0.8708   0.01394   0.00659   0.0037  0.0268  0.5000  -4.3013   0.0000   0.2377
   9.000   0.9726   0.01529   0.00809   0.0051  0.0222  0.5000  -5.1666   0.0000   0.2357
  10.000   1.0629   0.01783   0.01092   0.0079  0.0183  0.5000  -6.0184   0.0000   0.2322
  11.000   1.1571   0.01946   0.01275   0.0099  0.0153  0.5000  -7.1484   0.0000   0.2297
  12.000   1.2191   0.02396   0.01769   0.0157  0.0127  0.5000  -8.0368   0.0000   0.2240
  13.000   1.2381   0.03045   0.02482   0.0255  0.0120  0.5000  -8.6538   0.0000   0.2148
  14.000   1.2536   0.03753   0.03239   0.0299  0.0118  0.5000  -9.3171   0.0000   0.2097
  15.000   1.2392   0.05113   0.04653   0.0258  0.0116  0.5000  -9.6660   0.0000   0.2107
  16.000   1.1700   0.07765   0.07365   0.0102  0.0116  0.5000  -9.3343   0.0000   0.2205


