xflr5 v6.10.03

 Calculated polar for: NACA 0011

 1 1 Reynolds number fixed          Mach number fixed         

 xtrf =   0.500 (top)        0.500 (bottom)
 Mach =   0.080     Re =     0.710 e 6     Ncrit =   9.000

  alpha     CL        CD       CDp       Cm    Top Xtr Bot Xtr   Cpmin    Chinge    XCp    
 ------- -------- --------- --------- -------- ------- ------- -------- --------- ---------
  -5.000  -0.5577   0.01047   0.00302  -0.0010  0.5000  0.1312  -2.1043   0.0000   0.2427
  -4.000  -0.4511   0.00919   0.00224  -0.0003  0.5000  0.2495  -1.5544   0.0000   0.2446
  -3.000  -0.3429   0.00816   0.00170   0.0003  0.5000  0.3890  -1.1181   0.0000   0.2467
  -2.000  -0.2321   0.00749   0.00139   0.0007  0.5000  0.5000  -0.7797   0.0000   0.2493
  -1.000  -0.1161   0.00743   0.00121   0.0004  0.5000  0.5000  -0.5376   0.0000   0.2495
   0.000   0.0000   0.00740   0.00115  -0.0000  0.5000  0.5000  -0.3815   0.0000   1.4699
   1.000   0.1161   0.00743   0.00121  -0.0004  0.5000  0.5000  -0.5376   0.0000   0.2495
   2.000   0.2321   0.00749   0.00139  -0.0007  0.5000  0.5000  -0.7797   0.0000   0.2493
   3.000   0.3429   0.00816   0.00170  -0.0003  0.3890  0.5000  -1.1182   0.0000   0.2467
   4.000   0.4511   0.00919   0.00224   0.0003  0.2495  0.5000  -1.5544   0.0000   0.2446
   5.000   0.5577   0.01047   0.00302   0.0010  0.1312  0.5000  -2.1044   0.0000   0.2427
   6.000   0.6635   0.01180   0.00410   0.0020  0.0670  0.5000  -2.7318   0.0000   0.2409
   7.000   0.7683   0.01316   0.00544   0.0032  0.0422  0.5000  -3.4945   0.0000   0.2388
   8.000   0.8704   0.01474   0.00713   0.0047  0.0304  0.5000  -4.3059   0.0000   0.2366
   9.000   0.9663   0.01690   0.00954   0.0071  0.0241  0.5000  -5.1050   0.0000   0.2335
  10.000   1.0524   0.01990   0.01285   0.0105  0.0195  0.5000  -5.9292   0.0000   0.2296
  11.000   1.1369   0.02255   0.01586   0.0139  0.0167  0.5000  -6.9605   0.0000   0.2260
  12.000   1.2028   0.02635   0.02007   0.0192  0.0148  0.5000  -7.9139   0.0000   0.2209
  13.000   1.2312   0.03170   0.02589   0.0274  0.0138  0.5000  -8.6571   0.0000   0.2130
  14.000   1.2175   0.04256   0.03739   0.0303  0.0131  0.5000  -9.0244   0.0000   0.2085
  15.000   1.1621   0.06414   0.05967   0.0196  0.0129  0.5000  -8.8867   0.0000   0.2143
  16.000   1.0743   0.09621   0.09232   0.0003  0.0130  0.5000  -8.2346   0.0000   0.2290


