xflr5 v6.10.03

 Calculated polar for: NACA 0011

 1 1 Reynolds number fixed          Mach number fixed         

 xtrf =   0.500 (top)        0.500 (bottom)
 Mach =   0.080     Re =     0.570 e 6     Ncrit =   9.000

  alpha     CL        CD       CDp       Cm    Top Xtr Bot Xtr   Cpmin    Chinge    XCp    
 ------- -------- --------- --------- -------- ------- ------- -------- --------- ---------
  -5.000  -0.5564   0.01094   0.00325  -0.0013  0.5000  0.1468  -2.0966   0.0000   0.2421
  -4.000  -0.4509   0.00957   0.00242  -0.0005  0.5000  0.2772  -1.5507   0.0000   0.2442
  -3.000  -0.3433   0.00852   0.00186   0.0003  0.5000  0.4231  -1.1173   0.0000   0.2466
  -2.000  -0.2316   0.00799   0.00153   0.0006  0.5000  0.5000  -0.7786   0.0000   0.2488
  -1.000  -0.1158   0.00792   0.00132   0.0003  0.5000  0.5000  -0.5374   0.0000   0.2491
   0.000   0.0000   0.00789   0.00126  -0.0000  0.5000  0.5000  -0.3817   0.0000   1.4730
   1.000   0.1158   0.00792   0.00132  -0.0003  0.5000  0.5000  -0.5374   0.0000   0.2491
   2.000   0.2316   0.00799   0.00153  -0.0006  0.5000  0.5000  -0.7786   0.0000   0.2488
   3.000   0.3433   0.00852   0.00186  -0.0003  0.4231  0.5000  -1.1173   0.0000   0.2466
   4.000   0.4509   0.00957   0.00242   0.0005  0.2772  0.5000  -1.5508   0.0000   0.2442
   5.000   0.5565   0.01094   0.00325   0.0013  0.1468  0.5000  -2.0967   0.0000   0.2422
   6.000   0.6607   0.01246   0.00446   0.0025  0.0720  0.5000  -2.7115   0.0000   0.2401
   7.000   0.7636   0.01407   0.00608   0.0040  0.0456  0.5000  -3.4529   0.0000   0.2378
   8.000   0.8637   0.01587   0.00805   0.0058  0.0332  0.5000  -4.2387   0.0000   0.2353
   9.000   0.9544   0.01866   0.01110   0.0088  0.0261  0.5000  -4.9836   0.0000   0.2316
  10.000   1.0442   0.02116   0.01394   0.0118  0.0222  0.5000  -5.8303   0.0000   0.2284
  11.000   1.1108   0.02596   0.01920   0.0170  0.0182  0.5000  -6.6744   0.0000   0.2230
  12.000   1.1616   0.03076   0.02459   0.0236  0.0166  0.5000  -7.4693   0.0000   0.2166
  13.000   1.1686   0.03861   0.03309   0.0308  0.0158  0.5000  -7.9711   0.0000   0.2089
  14.000   1.1382   0.05339   0.04859   0.0278  0.0153  0.5000  -8.1193   0.0000   0.2089
  15.000   1.0404   0.08597   0.08193   0.0071  0.0155  0.5000  -7.4150   0.0000   0.2245
  17.000   0.7489   0.20402   0.20028  -0.0478  0.0188  0.5000  -2.1884   0.0000   0.2969


