xflr5 v6.10.03

 Calculated polar for: NACA 0011

 1 1 Reynolds number fixed          Mach number fixed         

 xtrf =   0.500 (top)        0.500 (bottom)
 Mach =   0.000     Re =     0.210 e 6     Ncrit =   9.000

  alpha     CL        CD       CDp       Cm    Top Xtr Bot Xtr   Cpmin    Chinge    XCp    
 ------- -------- --------- --------- -------- ------- ------- -------- --------- ---------
  -5.000  -0.5491   0.01358   0.00481  -0.0030  0.5000  0.2568  -2.0397   0.0000   0.2390
  -4.000  -0.4503   0.01193   0.00382  -0.0009  0.5000  0.4341  -1.5230   0.0000   0.2433
  -3.000  -0.3416   0.01118   0.00298   0.0001  0.5000  0.5000  -1.1013   0.0000   0.2460
  -2.000  -0.2279   0.01094   0.00242   0.0001  0.5000  0.5000  -0.7691   0.0000   0.2464
  -1.000  -0.1140   0.01081   0.00209   0.0000  0.5000  0.5000  -0.5342   0.0000   0.2467
   0.000  -0.0000   0.01077   0.00200   0.0000  0.5000  0.5000  -0.3812   0.0000   0.4165
   1.000   0.1140   0.01081   0.00209  -0.0000  0.5000  0.5000  -0.5342   0.0000   0.2467
   2.000   0.2279   0.01094   0.00242  -0.0001  0.5000  0.5000  -0.7691   0.0000   0.2464
   3.000   0.3416   0.01118   0.00298  -0.0001  0.5000  0.5000  -1.1013   0.0000   0.2460
   4.000   0.4504   0.01193   0.00382   0.0009  0.4341  0.5000  -1.5230   0.0000   0.2433
   5.000   0.5491   0.01358   0.00481   0.0030  0.2568  0.5000  -2.0397   0.0000   0.2390
   6.000   0.6434   0.01622   0.00680   0.0054  0.1191  0.5000  -2.5743   0.0000   0.2354
   7.000   0.7358   0.01932   0.00979   0.0082  0.0731  0.5000  -3.2066   0.0000   0.2318
   8.000   0.8280   0.02313   0.01391   0.0112  0.0553  0.5000  -3.8265   0.0000   0.2285
   9.000   0.9151   0.02791   0.01915   0.0142  0.0437  0.5000  -4.4185   0.0000   0.2255
  10.000   0.9904   0.03432   0.02619   0.0179  0.0374  0.5000  -5.0192   0.0000   0.2219
  11.000   1.0067   0.04671   0.04009   0.0256  0.0348  0.5000  -5.2357   0.0000   0.2135
  12.000   0.9338   0.06346   0.05792   0.0298  0.0349  0.5000  -4.9803   0.0000   0.2055
  13.000   0.6902   0.14238   0.13735  -0.0183  0.0618  0.5000  -2.1547   0.0000   0.2646
  14.000   0.7043   0.16070   0.15567  -0.0211  0.0590  0.5000  -2.2267   0.0000   0.2669
  15.000   0.7000   0.17838   0.17330  -0.0347  0.0504  0.5000  -1.9583   0.0000   0.2857
  16.000   0.7287   0.19458   0.18953  -0.0374  0.0468  0.5000  -2.0847   0.0000   0.2862
  17.000   0.7402   0.20942   0.20435  -0.0490  0.0387  0.5000  -1.8420   0.0000   0.2999


