xflr5 v6.10.03

 Calculated polar for: NACA 0011

 1 1 Reynolds number fixed          Mach number fixed         

 xtrf =   0.500 (top)        0.500 (bottom)
 Mach =   0.080     Re =     0.210 e 6     Ncrit =   9.000

  alpha     CL        CD       CDp       Cm    Top Xtr Bot Xtr   Cpmin    Chinge    XCp    
 ------- -------- --------- --------- -------- ------- ------- -------- --------- ---------
  -5.000  -0.5508   0.01365   0.00486  -0.0032  0.5000  0.2509  -2.0499   0.0000   0.2387
  -4.000  -0.4517   0.01197   0.00385  -0.0010  0.5000  0.4295  -1.5298   0.0000   0.2430
  -3.000  -0.3430   0.01120   0.00301   0.0000  0.5000  0.5000  -1.1063   0.0000   0.2459
  -2.000  -0.2287   0.01094   0.00244   0.0001  0.5000  0.5000  -0.7723   0.0000   0.2463
  -1.000  -0.1144   0.01081   0.00210   0.0000  0.5000  0.5000  -0.5363   0.0000   0.2466
   0.000  -0.0000   0.01077   0.00200  -0.0000  0.5000  0.5000  -0.3827   0.0000   0.2009
   1.000   0.1144   0.01081   0.00210  -0.0000  0.5000  0.5000  -0.5363   0.0000   0.2466
   2.000   0.2287   0.01094   0.00244  -0.0001  0.5000  0.5000  -0.7723   0.0000   0.2463
   3.000   0.3430   0.01120   0.00301  -0.0000  0.5000  0.5000  -1.1063   0.0000   0.2459
   4.000   0.4517   0.01197   0.00385   0.0010  0.4295  0.5000  -1.5299   0.0000   0.2430
   5.000   0.5508   0.01365   0.00486   0.0032  0.2509  0.5000  -2.0500   0.0000   0.2387
   6.000   0.6457   0.01628   0.00689   0.0056  0.1170  0.5000  -2.5878   0.0000   0.2351
   7.000   0.7378   0.01953   0.01001   0.0086  0.0722  0.5000  -3.2206   0.0000   0.2313
   8.000   0.8305   0.02335   0.01418   0.0116  0.0548  0.5000  -3.8451   0.0000   0.2280
   9.000   0.9174   0.02830   0.01962   0.0148  0.0433  0.5000  -4.4352   0.0000   0.2249
  10.000   0.9897   0.03528   0.02728   0.0188  0.0372  0.5000  -5.0149   0.0000   0.2210
  11.000   0.9978   0.04791   0.04142   0.0269  0.0348  0.5000  -5.1895   0.0000   0.2119
  12.000   0.9186   0.06560   0.06013   0.0287  0.0351  0.5000  -4.8951   0.0000   0.2060
  13.000   0.6880   0.14314   0.13810  -0.0187  0.0618  0.5000  -2.1329   0.0000   0.2652
  14.000   0.7037   0.16127   0.15623  -0.0212  0.0590  0.5000  -2.2182   0.0000   0.2671
  15.000   0.6993   0.17892   0.17384  -0.0350  0.0505  0.5000  -1.9445   0.0000   0.2861
  17.000   0.7405   0.20993   0.20485  -0.0493  0.0388  0.5000  -1.8325   0.0000   0.3002


