xflr5 v6.10.03

 Calculated polar for: NACA 0011

 1 1 Reynolds number fixed          Mach number fixed         

 xtrf =   0.500 (top)        0.500 (bottom)
 Mach =   0.080     Re =     0.370 e 6     Ncrit =   9.000

  alpha     CL        CD       CDp       Cm    Top Xtr Bot Xtr   Cpmin    Chinge    XCp    
 ------- -------- --------- --------- -------- ------- ------- -------- --------- ---------
  -5.000  -0.5540   0.01195   0.00380  -0.0020  0.5000  0.1858  -2.0792   0.0000   0.2409
  -4.000  -0.4505   0.01045   0.00288  -0.0008  0.5000  0.3409  -1.5421   0.0000   0.2434
  -3.000  -0.3453   0.00933   0.00229   0.0005  0.5000  0.4941  -1.1168   0.0000   0.2472
  -2.000  -0.2305   0.00912   0.00186   0.0004  0.5000  0.5000  -0.7762   0.0000   0.2478
  -1.000  -0.1153   0.00903   0.00160   0.0002  0.5000  0.5000  -0.5370   0.0000   0.2481
   0.000   0.0000   0.00900   0.00153  -0.0000  0.5000  0.5000  -0.3821   0.0000   1.8788
   1.000   0.1153   0.00903   0.00160  -0.0002  0.5000  0.5000  -0.5370   0.0000   0.2481
   2.000   0.2305   0.00912   0.00186  -0.0004  0.5000  0.5000  -0.7762   0.0000   0.2478
   3.000   0.3453   0.00933   0.00229  -0.0005  0.4942  0.5000  -1.1168   0.0000   0.2472
   4.000   0.4505   0.01045   0.00288   0.0008  0.3409  0.5000  -1.5421   0.0000   0.2434
   5.000   0.5540   0.01195   0.00380   0.0020  0.1858  0.5000  -2.0793   0.0000   0.2409
   6.000   0.6549   0.01390   0.00533   0.0036  0.0880  0.5000  -2.6658   0.0000   0.2383
   7.000   0.7544   0.01594   0.00739   0.0056  0.0550  0.5000  -3.3707   0.0000   0.2355
   8.000   0.8497   0.01833   0.00998   0.0081  0.0402  0.5000  -4.1001   0.0000   0.2325
   9.000   0.9372   0.02177   0.01374   0.0115  0.0320  0.5000  -4.7802   0.0000   0.2286
  10.000   1.0109   0.02746   0.01993   0.0159  0.0267  0.5000  -5.4253   0.0000   0.2240
  11.000   1.0755   0.03271   0.02593   0.0211  0.0236  0.5000  -6.1668   0.0000   0.2189
  12.000   1.1072   0.03828   0.03207   0.0283  0.0210  0.5000  -6.8270   0.0000   0.2115
  13.000   1.0851   0.04979   0.04429   0.0318  0.0201  0.5000  -7.0557   0.0000   0.2060
  14.000   1.0062   0.07540   0.07076   0.0169  0.0202  0.5000  -6.6323   0.0000   0.2165
  16.000   0.7324   0.18808   0.18385  -0.0404  0.0284  0.5000  -2.2586   0.0000   0.2895
  17.000   0.7484   0.20702   0.20281  -0.0466  0.0268  0.5000  -2.0739   0.0000   0.2956


