xflr5 v6.10.03

 Calculated polar for: NACA 0011

 1 1 Reynolds number fixed          Mach number fixed         

 xtrf =   0.500 (top)        0.500 (bottom)
 Mach =   0.000     Re =     0.710 e 6     Ncrit =   9.000

  alpha     CL        CD       CDp       Cm    Top Xtr Bot Xtr   Cpmin    Chinge    XCp    
 ------- -------- --------- --------- -------- ------- ------- -------- --------- ---------
  -5.000  -0.5556   0.01044   0.00299  -0.0009  0.5000  0.1338  -2.0922   0.0000   0.2429
  -4.000  -0.4496   0.00916   0.00222  -0.0002  0.5000  0.2530  -1.5467   0.0000   0.2448
  -3.000  -0.3416   0.00815   0.00169   0.0004  0.5000  0.3916  -1.1130   0.0000   0.2468
  -2.000  -0.2312   0.00749   0.00139   0.0008  0.5000  0.5000  -0.7763   0.0000   0.2494
  -1.000  -0.1157   0.00742   0.00120   0.0004  0.5000  0.5000  -0.5355   0.0000   0.2496
   0.000   0.0000   0.00740   0.00116  -0.0000  0.5000  0.5000  -0.3800   0.0000   0.4558
   1.000   0.1157   0.00742   0.00120  -0.0004  0.5000  0.5000  -0.5355   0.0000   0.2496
   2.000   0.2312   0.00749   0.00139  -0.0008  0.5000  0.5000  -0.7764   0.0000   0.2494
   3.000   0.3416   0.00815   0.00169  -0.0004  0.3916  0.5000  -1.1130   0.0000   0.2468
   4.000   0.4496   0.00916   0.00222   0.0002  0.2530  0.5000  -1.5468   0.0000   0.2448
   5.000   0.5557   0.01044   0.00299   0.0009  0.1337  0.5000  -2.0923   0.0000   0.2429
   6.000   0.6610   0.01175   0.00405   0.0018  0.0683  0.5000  -2.7145   0.0000   0.2411
   7.000   0.7654   0.01310   0.00537   0.0029  0.0430  0.5000  -3.4691   0.0000   0.2392
   8.000   0.8672   0.01463   0.00700   0.0043  0.0310  0.5000  -4.2723   0.0000   0.2370
   9.000   0.9630   0.01674   0.00936   0.0066  0.0244  0.5000  -5.0621   0.0000   0.2341
  10.000   1.0523   0.01929   0.01214   0.0094  0.0200  0.5000  -5.9099   0.0000   0.2307
  11.000   1.1351   0.02212   0.01536   0.0128  0.0169  0.5000  -6.9081   0.0000   0.2270
  12.000   1.2043   0.02564   0.01926   0.0176  0.0149  0.5000  -7.8717   0.0000   0.2223
  13.000   1.2395   0.03049   0.02455   0.0255  0.0138  0.5000  -8.6539   0.0000   0.2148
  14.000   1.2324   0.04006   0.03473   0.0301  0.0131  0.5000  -9.0824   0.0000   0.2091
  15.000   1.1829   0.05954   0.05492   0.0222  0.0128  0.5000  -9.0275   0.0000   0.2126
  16.000   1.1022   0.08940   0.08538   0.0042  0.0128  0.5000  -8.5033   0.0000   0.2255


