xflr5 v6.10.03

 Calculated polar for: NACA 0011

 1 1 Reynolds number fixed          Mach number fixed         

 xtrf =   0.500 (top)        0.500 (bottom)
 Mach =   0.080     Re =     0.890 e 6     Ncrit =   9.000

  alpha     CL        CD       CDp       Cm    Top Xtr Bot Xtr   Cpmin    Chinge    XCp    
 ------- -------- --------- --------- -------- ------- ------- -------- --------- ---------
  -5.000  -0.5588   0.01004   0.00283  -0.0008  0.5000  0.1157  -2.1112   0.0000   0.2432
  -4.000  -0.4512   0.00887   0.00209  -0.0001  0.5000  0.2203  -1.5571   0.0000   0.2449
  -3.000  -0.3425   0.00784   0.00157   0.0004  0.5000  0.3542  -1.1188   0.0000   0.2468
  -2.000  -0.2322   0.00707   0.00127   0.0008  0.5000  0.4888  -0.7802   0.0000   0.2494
  -1.000  -0.1164   0.00696   0.00110   0.0004  0.5000  0.5000  -0.5378   0.0000   0.2500
   0.000   0.0000   0.00694   0.00105  -0.0000  0.5000  0.5000  -0.3813   0.0000   1.8908
   1.000   0.1164   0.00696   0.00110  -0.0004  0.5000  0.5000  -0.5378   0.0000   0.2500
   2.000   0.2322   0.00707   0.00127  -0.0008  0.4888  0.5000  -0.7802   0.0000   0.2494
   3.000   0.3425   0.00784   0.00157  -0.0004  0.3541  0.5000  -1.1188   0.0000   0.2468
   5.000   0.5588   0.01004   0.00283   0.0008  0.1157  0.5000  -2.1112   0.0000   0.2432
   6.000   0.6655   0.01127   0.00382   0.0016  0.0594  0.5000  -2.7464   0.0000   0.2414
   7.000   0.7710   0.01258   0.00508   0.0027  0.0367  0.5000  -3.5174   0.0000   0.2395
   8.000   0.8737   0.01411   0.00676   0.0042  0.0268  0.5000  -4.3326   0.0000   0.2372
   9.000   0.9754   0.01554   0.00835   0.0057  0.0220  0.5000  -5.2045   0.0000   0.2350
  10.000   1.0653   0.01818   0.01130   0.0088  0.0183  0.5000  -6.0635   0.0000   0.2314
  11.000   1.1585   0.01998   0.01333   0.0111  0.0152  0.5000  -7.1987   0.0000   0.2287
  12.000   1.2189   0.02459   0.01838   0.0172  0.0128  0.5000  -8.0954   0.0000   0.2227
  13.000   1.2218   0.03238   0.02691   0.0279  0.0121  0.5000  -8.5800   0.0000   0.2125
  14.000   1.2278   0.04114   0.03619   0.0303  0.0119  0.5000  -9.1535   0.0000   0.2087
  15.000   1.1981   0.05857   0.05421   0.0221  0.0117  0.5000  -9.3150   0.0000   0.2128
  16.000   1.0906   0.09346   0.08974   0.0012  0.0118  0.5000  -8.4665   0.0000   0.2282


