xflr5 v6.10.03

 Calculated polar for: NACA 0011

 1 1 Reynolds number fixed          Mach number fixed         

 xtrf =   0.500 (top)        0.500 (bottom)
 Mach =   0.000     Re =     0.890 e 6     Ncrit =   9.000

  alpha     CL        CD       CDp       Cm    Top Xtr Bot Xtr   Cpmin    Chinge    XCp    
 ------- -------- --------- --------- -------- ------- ------- -------- --------- ---------
  -5.000  -0.5567   0.01001   0.00280  -0.0007  0.5000  0.1177  -2.0988   0.0000   0.2434
  -4.000  -0.4497   0.00884   0.00207  -0.0000  0.5000  0.2237  -1.5495   0.0000   0.2451
  -3.000  -0.3413   0.00783   0.00155   0.0004  0.5000  0.3569  -1.1137   0.0000   0.2469
  -2.000  -0.2314   0.00705   0.00126   0.0008  0.5000  0.4914  -0.7770   0.0000   0.2496
  -1.000  -0.1159   0.00696   0.00109   0.0004  0.5000  0.5000  -0.5357   0.0000   0.2501
   0.000   0.0000   0.00694   0.00105  -0.0000  0.5000  0.5000  -0.3799   0.0000   0.4571
   1.000   0.1159   0.00696   0.00109  -0.0004  0.5000  0.5000  -0.5357   0.0000   0.2501
   2.000   0.2314   0.00705   0.00126  -0.0008  0.4914  0.5000  -0.7770   0.0000   0.2496
   3.000   0.3413   0.00783   0.00155  -0.0004  0.3569  0.5000  -1.1137   0.0000   0.2470
   4.000   0.4497   0.00884   0.00207   0.0000  0.2237  0.5000  -1.5495   0.0000   0.2451
   5.000   0.5567   0.01001   0.00280   0.0006  0.1177  0.5000  -2.0989   0.0000   0.2434
   6.000   0.6631   0.01121   0.00376   0.0014  0.0614  0.5000  -2.7297   0.0000   0.2417
   7.000   0.7684   0.01245   0.00494   0.0023  0.0381  0.5000  -3.4962   0.0000   0.2399
   8.000   0.8701   0.01406   0.00668   0.0038  0.0269  0.5000  -4.2947   0.0000   0.2376
   9.000   0.9719   0.01539   0.00818   0.0052  0.0224  0.5000  -5.1591   0.0000   0.2356
  10.000   1.0613   0.01803   0.01111   0.0081  0.0184  0.5000  -6.0021   0.0000   0.2320
  11.000   1.1554   0.01967   0.01295   0.0102  0.0155  0.5000  -7.1291   0.0000   0.2295
  12.000   1.2214   0.02374   0.01741   0.0155  0.0129  0.5000  -8.0619   0.0000   0.2242
  13.000   1.2298   0.03121   0.02561   0.0261  0.0121  0.5000  -8.5726   0.0000   0.2141
  14.000   1.2432   0.03867   0.03356   0.0300  0.0119  0.5000  -9.2105   0.0000   0.2094
  15.000   1.2258   0.05306   0.04850   0.0249  0.0117  0.5000  -9.5196   0.0000   0.2111
  16.000   1.1485   0.08142   0.07748   0.0081  0.0117  0.5000  -9.0804   0.0000   0.2222


