xflr5 v6.10.03

 Calculated polar for: NACA 0011

 1 1 Reynolds number fixed          Mach number fixed         

 xtrf =   0.500 (top)        0.500 (bottom)
 Mach =   0.000     Re =     0.390 e 6     Ncrit =   9.000

  alpha     CL        CD       CDp       Cm    Top Xtr Bot Xtr   Cpmin    Chinge    XCp    
 ------- -------- --------- --------- -------- ------- ------- -------- --------- ---------
  -5.000  -0.5524   0.01177   0.00368  -0.0018  0.5000  0.1842  -2.0702   0.0000   0.2413
  -4.000  -0.4491   0.01028   0.00279  -0.0007  0.5000  0.3372  -1.5360   0.0000   0.2437
  -3.000  -0.3438   0.00919   0.00221   0.0005  0.5000  0.4886  -1.1119   0.0000   0.2473
  -2.000  -0.2297   0.00897   0.00180   0.0005  0.5000  0.5000  -0.7732   0.0000   0.2480
  -1.000  -0.1149   0.00888   0.00155   0.0002  0.5000  0.5000  -0.5349   0.0000   0.2483
   0.000   0.0000   0.00885   0.00148  -0.0000  0.5000  0.5000  -0.3806   0.0000   0.4600
   1.000   0.1149   0.00888   0.00155  -0.0002  0.5000  0.5000  -0.5349   0.0000   0.2483
   2.000   0.2297   0.00897   0.00180  -0.0005  0.5000  0.5000  -0.7732   0.0000   0.2481
   3.000   0.3438   0.00919   0.00221  -0.0005  0.4886  0.5000  -1.1119   0.0000   0.2473
   4.000   0.4491   0.01028   0.00279   0.0007  0.3372  0.5000  -1.5361   0.0000   0.2437
   5.000   0.5524   0.01177   0.00368   0.0018  0.1842  0.5000  -2.0703   0.0000   0.2413
   6.000   0.6534   0.01365   0.00514   0.0032  0.0876  0.5000  -2.6564   0.0000   0.2389
   7.000   0.7533   0.01556   0.00706   0.0050  0.0546  0.5000  -3.3625   0.0000   0.2363
   8.000   0.8491   0.01782   0.00949   0.0073  0.0397  0.5000  -4.0954   0.0000   0.2334
   9.000   0.9375   0.02095   0.01293   0.0105  0.0315  0.5000  -4.7863   0.0000   0.2297
  10.000   1.0132   0.02603   0.01847   0.0147  0.0265  0.5000  -5.4511   0.0000   0.2253
  11.000   1.0832   0.03056   0.02362   0.0192  0.0229  0.5000  -6.2481   0.0000   0.2207
  12.000   1.1256   0.03552   0.02904   0.0258  0.0202  0.5000  -6.9917   0.0000   0.2142
  13.000   1.0922   0.04846   0.04288   0.0317  0.0193  0.5000  -7.0844   0.0000   0.2065
  14.000   1.0232   0.07095   0.06618   0.0203  0.0193  0.5000  -6.7949   0.0000   0.2135
  15.000   0.7085   0.17411   0.16992  -0.0350  0.0316  0.5000  -2.1639   0.0000   0.2851
  16.000   0.7406   0.18433   0.18018  -0.0379  0.0277  0.5000  -2.4812   0.0000   0.2854
  17.000   0.7474   0.20650   0.20235  -0.0472  0.0265  0.5000  -2.0397   0.0000   0.2965


