xflr5 v6.10.03

 Calculated polar for: NACA 0011

 1 1 Reynolds number fixed          Mach number fixed         

 xtrf =   0.500 (top)        0.500 (bottom)
 Mach =   0.000     Re =     0.810 e 6     Ncrit =   9.000

  alpha     CL        CD       CDp       Cm    Top Xtr Bot Xtr   Cpmin    Chinge    XCp    
 ------- -------- --------- --------- -------- ------- ------- -------- --------- ---------
  -5.000  -0.5562   0.01019   0.00288  -0.0008  0.5000  0.1242  -2.0961   0.0000   0.2432
  -4.000  -0.4497   0.00896   0.00213  -0.0001  0.5000  0.2365  -1.5485   0.0000   0.2450
  -3.000  -0.3413   0.00797   0.00161   0.0004  0.5000  0.3698  -1.1132   0.0000   0.2468
  -2.000  -0.2315   0.00721   0.00131   0.0008  0.5000  0.5000  -0.7770   0.0000   0.2496
  -1.000  -0.1158   0.00715   0.00114   0.0004  0.5000  0.5000  -0.5356   0.0000   0.2499
   0.000   0.0000   0.00713   0.00110  -0.0000  0.5000  0.5000  -0.3799   0.0000   0.4559
   1.000   0.1158   0.00715   0.00114  -0.0004  0.5000  0.5000  -0.5356   0.0000   0.2499
   2.000   0.2315   0.00721   0.00131  -0.0008  0.5000  0.5000  -0.7770   0.0000   0.2496
   3.000   0.3413   0.00797   0.00161  -0.0004  0.3698  0.5000  -1.1132   0.0000   0.2469
   4.000   0.4497   0.00896   0.00213   0.0001  0.2365  0.5000  -1.5485   0.0000   0.2450
   5.000   0.5563   0.01019   0.00288   0.0008  0.1242  0.5000  -2.0961   0.0000   0.2432
   6.000   0.6623   0.01142   0.00387   0.0015  0.0647  0.5000  -2.7241   0.0000   0.2415
   7.000   0.7674   0.01268   0.00507   0.0025  0.0406  0.5000  -3.4879   0.0000   0.2397
   8.000   0.8696   0.01419   0.00669   0.0039  0.0288  0.5000  -4.2946   0.0000   0.2375
   9.000   0.9686   0.01590   0.00863   0.0057  0.0232  0.5000  -5.1220   0.0000   0.2350
  10.000   1.0540   0.01900   0.01204   0.0091  0.0187  0.5000  -5.9263   0.0000   0.2310
  11.000   1.1474   0.02062   0.01389   0.0112  0.0160  0.5000  -7.0415   0.0000   0.2285
  12.000   1.2209   0.02385   0.01742   0.0156  0.0139  0.5000  -8.0571   0.0000   0.2241
  13.000   1.2360   0.03067   0.02488   0.0257  0.0126  0.5000  -8.6311   0.0000   0.2146
  14.000   1.1896   0.04504   0.04013   0.0294  0.0121  0.5000  -8.6615   0.0000   0.2088
  15.000   1.1511   0.06457   0.06025   0.0189  0.0121  0.5000  -8.6981   0.0000   0.2149
  17.000   0.7736   0.19200   0.18862  -0.0466  0.0117  0.5000  -3.1278   0.0000   0.2923


