xflr5 v6.10.03

 Calculated polar for: NACA 0011

 1 1 Reynolds number fixed          Mach number fixed         

 xtrf =   0.500 (top)        0.500 (bottom)
 Mach =   0.000     Re =     0.870 e 6     Ncrit =   9.000

  alpha     CL        CD       CDp       Cm    Top Xtr Bot Xtr   Cpmin    Chinge    XCp    
 ------- -------- --------- --------- -------- ------- ------- -------- --------- ---------
  -5.000  -0.5565   0.01006   0.00282  -0.0007  0.5000  0.1188  -2.0980   0.0000   0.2434
  -4.000  -0.4497   0.00886   0.00208  -0.0001  0.5000  0.2271  -1.5494   0.0000   0.2451
  -3.000  -0.3413   0.00786   0.00157   0.0004  0.5000  0.3602  -1.1136   0.0000   0.2469
  -2.000  -0.2315   0.00708   0.00127   0.0008  0.5000  0.4954  -0.7771   0.0000   0.2497
  -1.000  -0.1159   0.00701   0.00110   0.0004  0.5000  0.5000  -0.5357   0.0000   0.2500
   0.000   0.0000   0.00699   0.00106  -0.0000  0.5000  0.5000  -0.3799   0.0000   0.4564
   1.000   0.1159   0.00701   0.00110  -0.0004  0.5000  0.5000  -0.5357   0.0000   0.2500
   2.000   0.2316   0.00708   0.00127  -0.0008  0.4953  0.5000  -0.7771   0.0000   0.2497
   3.000   0.3413   0.00786   0.00157  -0.0004  0.3602  0.5000  -1.1136   0.0000   0.2469
   4.000   0.4497   0.00886   0.00208   0.0000  0.2270  0.5000  -1.5494   0.0000   0.2451
   5.000   0.5566   0.01006   0.00282   0.0007  0.1188  0.5000  -2.0981   0.0000   0.2434
   6.000   0.6629   0.01126   0.00378   0.0014  0.0623  0.5000  -2.7284   0.0000   0.2417
   7.000   0.7682   0.01250   0.00496   0.0024  0.0388  0.5000  -3.4949   0.0000   0.2399
   8.000   0.8696   0.01415   0.00675   0.0039  0.0270  0.5000  -4.2897   0.0000   0.2375
   9.000   0.9712   0.01550   0.00828   0.0053  0.0226  0.5000  -5.1508   0.0000   0.2354
  10.000   1.0597   0.01825   0.01132   0.0084  0.0185  0.5000  -5.9848   0.0000   0.2318
  11.000   1.1535   0.01989   0.01317   0.0104  0.0156  0.5000  -7.1087   0.0000   0.2293
  12.000   1.2226   0.02363   0.01726   0.0153  0.0131  0.5000  -8.0756   0.0000   0.2243
  13.000   1.2208   0.03206   0.02650   0.0268  0.0121  0.5000  -8.4841   0.0000   0.2134
  14.000   1.2317   0.03995   0.03488   0.0300  0.0120  0.5000  -9.0937   0.0000   0.2092
  15.000   1.2110   0.05526   0.05075   0.0238  0.0118  0.5000  -9.3567   0.0000   0.2117
  16.000   1.1230   0.08598   0.08210   0.0054  0.0118  0.5000  -8.7761   0.0000   0.2244


