xflr5 v6.10.03

 Calculated polar for: NACA 0011

 1 1 Reynolds number fixed          Mach number fixed         

 xtrf =   0.500 (top)        0.500 (bottom)
 Mach =   0.000     Re =     0.570 e 6     Ncrit =   9.000

  alpha     CL        CD       CDp       Cm    Top Xtr Bot Xtr   Cpmin    Chinge    XCp    
 ------- -------- --------- --------- -------- ------- ------- -------- --------- ---------
  -5.000  -0.5545   0.01089   0.00321  -0.0012  0.5000  0.1500  -2.0848   0.0000   0.2424
  -4.000  -0.4493   0.00954   0.00240  -0.0004  0.5000  0.2807  -1.5431   0.0000   0.2444
  -3.000  -0.3422   0.00849   0.00185   0.0004  0.5000  0.4263  -1.1125   0.0000   0.2468
  -2.000  -0.2307   0.00799   0.00152   0.0006  0.5000  0.5000  -0.7753   0.0000   0.2489
  -1.000  -0.1154   0.00792   0.00131   0.0003  0.5000  0.5000  -0.5353   0.0000   0.2492
   0.000   0.0000   0.00789   0.00126  -0.0000  0.5000  0.5000  -0.3802   0.0000   0.4558
   1.000   0.1154   0.00792   0.00131  -0.0003  0.5000  0.5000  -0.5353   0.0000   0.2492
   2.000   0.2307   0.00799   0.00152  -0.0006  0.5000  0.5000  -0.7753   0.0000   0.2489
   3.000   0.3422   0.00849   0.00185  -0.0004  0.4262  0.5000  -1.1125   0.0000   0.2468
   4.000   0.4493   0.00954   0.00240   0.0004  0.2807  0.5000  -1.5431   0.0000   0.2444
   5.000   0.5545   0.01089   0.00321   0.0012  0.1500  0.5000  -2.0849   0.0000   0.2424
   6.000   0.6583   0.01242   0.00441   0.0023  0.0733  0.5000  -2.6948   0.0000   0.2404
   7.000   0.7607   0.01402   0.00601   0.0037  0.0461  0.5000  -3.4282   0.0000   0.2381
   8.000   0.8606   0.01576   0.00792   0.0054  0.0337  0.5000  -4.2068   0.0000   0.2357
   9.000   0.9513   0.01849   0.01088   0.0083  0.0262  0.5000  -4.9451   0.0000   0.2322
  10.000   1.0414   0.02089   0.01362   0.0110  0.0225  0.5000  -5.7849   0.0000   0.2291
  11.000   1.1094   0.02552   0.01868   0.0160  0.0184  0.5000  -6.6291   0.0000   0.2240
  12.000   1.1679   0.02989   0.02359   0.0216  0.0167  0.5000  -7.4702   0.0000   0.2185
  13.000   1.1816   0.03681   0.03113   0.0295  0.0158  0.5000  -8.0249   0.0000   0.2105
  14.000   1.1621   0.04924   0.04423   0.0294  0.0152  0.5000  -8.2893   0.0000   0.2082
  15.000   1.0893   0.07540   0.07114   0.0139  0.0152  0.5000  -7.9154   0.0000   0.2186
  17.000   0.7486   0.20345   0.19971  -0.0475  0.0188  0.5000  -2.1984   0.0000   0.2966


