xflr5 v6.10.03

 Calculated polar for: NACA 0011

 1 1 Reynolds number fixed          Mach number fixed         

 xtrf =   0.500 (top)        0.500 (bottom)
 Mach =   0.000     Re =     0.850 e 6     Ncrit =   9.000

  alpha     CL        CD       CDp       Cm    Top Xtr Bot Xtr   Cpmin    Chinge    XCp    
 ------- -------- --------- --------- -------- ------- ------- -------- --------- ---------
  -5.000  -0.5564   0.01011   0.00284  -0.0007  0.5000  0.1200  -2.0972   0.0000   0.2433
  -4.000  -0.4497   0.00889   0.00210  -0.0001  0.5000  0.2303  -1.5492   0.0000   0.2451
  -3.000  -0.3413   0.00790   0.00158   0.0004  0.5000  0.3634  -1.1135   0.0000   0.2469
  -2.000  -0.2316   0.00711   0.00128   0.0008  0.5000  0.4992  -0.7771   0.0000   0.2497
  -1.000  -0.1159   0.00705   0.00111   0.0004  0.5000  0.5000  -0.5357   0.0000   0.2500
   0.000   0.0000   0.00703   0.00107  -0.0000  0.5000  0.5000  -0.3799   0.0000   0.4569
   1.000   0.1159   0.00705   0.00111  -0.0004  0.5000  0.5000  -0.5357   0.0000   0.2500
   2.000   0.2316   0.00711   0.00128  -0.0008  0.4992  0.5000  -0.7772   0.0000   0.2497
   3.000   0.3413   0.00790   0.00158  -0.0004  0.3634  0.5000  -1.1135   0.0000   0.2469
   4.000   0.4497   0.00889   0.00210   0.0001  0.2303  0.5000  -1.5492   0.0000   0.2451
   5.000   0.5564   0.01011   0.00284   0.0007  0.1200  0.5000  -2.0973   0.0000   0.2433
   6.000   0.6627   0.01131   0.00381   0.0015  0.0632  0.5000  -2.7271   0.0000   0.2416
   7.000   0.7680   0.01255   0.00499   0.0024  0.0394  0.5000  -3.4930   0.0000   0.2398
   8.000   0.8698   0.01414   0.00670   0.0039  0.0276  0.5000  -4.2936   0.0000   0.2375
   9.000   0.9704   0.01563   0.00839   0.0054  0.0228  0.5000  -5.1419   0.0000   0.2353
  10.000   1.0579   0.01849   0.01155   0.0086  0.0186  0.5000  -5.9665   0.0000   0.2315
  11.000   1.1516   0.02012   0.01340   0.0107  0.0157  0.5000  -7.0873   0.0000   0.2291
  12.000   1.2229   0.02362   0.01722   0.0153  0.0134  0.5000  -8.0788   0.0000   0.2244
  14.000   1.2192   0.04141   0.03639   0.0300  0.0120  0.5000  -8.9656   0.0000   0.2090
  15.000   1.1940   0.05784   0.05338   0.0225  0.0119  0.5000  -9.1707   0.0000   0.2125
  16.000   1.0904   0.09194   0.08814   0.0020  0.0120  0.5000  -8.3847   0.0000   0.2275


