xflr5 v6.10.03

 Calculated polar for: NACA 0011

 1 1 Reynolds number fixed          Mach number fixed         

 xtrf =   0.500 (top)        0.500 (bottom)
 Mach =   0.000     Re =     0.310 e 6     Ncrit =   9.000

  alpha     CL        CD       CDp       Cm    Top Xtr Bot Xtr   Cpmin    Chinge    XCp    
 ------- -------- --------- --------- -------- ------- ------- -------- --------- ---------
  -5.000  -0.5512   0.01236   0.00404  -0.0022  0.5000  0.2105  -2.0600   0.0000   0.2405
  -4.000  -0.4492   0.01082   0.00310  -0.0008  0.5000  0.3717  -1.5312   0.0000   0.2434
  -3.000  -0.3435   0.00984   0.00247   0.0005  0.5000  0.5000  -1.1089   0.0000   0.2471
  -2.000  -0.2291   0.00964   0.00200   0.0003  0.5000  0.5000  -0.7718   0.0000   0.2475
  -1.000  -0.1146   0.00954   0.00172   0.0002  0.5000  0.5000  -0.5347   0.0000   0.2478
   0.000   0.0000   0.00950   0.00164  -0.0000  0.5000  0.5000  -0.3808   0.0000   0.4610
   1.000   0.1146   0.00954   0.00172  -0.0002  0.5000  0.5000  -0.5347   0.0000   0.2478
   2.000   0.2291   0.00964   0.00200  -0.0003  0.5000  0.5000  -0.7718   0.0000   0.2475
   3.000   0.3435   0.00984   0.00247  -0.0005  0.5000  0.5000  -1.1089   0.0000   0.2471
   4.000   0.4492   0.01082   0.00310   0.0008  0.3717  0.5000  -1.5313   0.0000   0.2434
   5.000   0.5512   0.01236   0.00404   0.0022  0.2105  0.5000  -2.0601   0.0000   0.2405
   6.000   0.6504   0.01444   0.00566   0.0039  0.0989  0.5000  -2.6304   0.0000   0.2378
   7.000   0.7458   0.01699   0.00810   0.0063  0.0595  0.5000  -3.3017   0.0000   0.2346
   8.000   0.8389   0.01980   0.01118   0.0090  0.0448  0.5000  -3.9835   0.0000   0.2313
   9.000   0.9255   0.02363   0.01531   0.0122  0.0352  0.5000  -4.6377   0.0000   0.2278
  10.000   1.0079   0.02765   0.01987   0.0157  0.0301  0.5000  -5.3437   0.0000   0.2242
  11.000   1.0547   0.03684   0.02996   0.0217  0.0263  0.5000  -5.8690   0.0000   0.2181
  12.000   1.0583   0.04547   0.03954   0.0301  0.0245  0.5000  -6.2095   0.0000   0.2088
  13.000   0.9947   0.06307   0.05808   0.0269  0.0239  0.5000  -6.0354   0.0000   0.2084
  14.000   0.1786   0.02698   0.02332   0.0336  0.0456  0.5000  -0.9976   0.0000   0.0732
  15.000   0.7239   0.16971   0.16527  -0.0299  0.0373  0.5000  -2.4425   0.0000   0.2768
  16.000   0.7208   0.19237   0.18788  -0.0422  0.0342  0.5000  -1.9835   0.0000   0.2933
  17.000   0.7475   0.20600   0.20156  -0.0483  0.0284  0.5000  -2.0202   0.0000   0.2980


