xflr5 v6.10.03

 Calculated polar for: NACA 0011

 1 1 Reynolds number fixed          Mach number fixed         

 xtrf =   0.500 (top)        0.500 (bottom)
 Mach =   0.080     Re =     0.550 e 6     Ncrit =   9.000

  alpha     CL        CD       CDp       Cm    Top Xtr Bot Xtr   Cpmin    Chinge    XCp    
 ------- -------- --------- --------- -------- ------- ------- -------- --------- ---------
  -5.000  -0.5562   0.01102   0.00329  -0.0014  0.5000  0.1496  -2.0953   0.0000   0.2420
  -4.000  -0.4508   0.00963   0.00245  -0.0005  0.5000  0.2821  -1.5500   0.0000   0.2441
  -3.000  -0.3435   0.00857   0.00189   0.0003  0.5000  0.4290  -1.1175   0.0000   0.2467
  -2.000  -0.2315   0.00808   0.00156   0.0006  0.5000  0.5000  -0.7785   0.0000   0.2487
  -1.000  -0.1158   0.00800   0.00134   0.0003  0.5000  0.5000  -0.5374   0.0000   0.2490
   0.000   0.0000   0.00798   0.00128  -0.0000  0.5000  0.5000  -0.3817   0.0000   1.4611
   1.000   0.1158   0.00800   0.00134  -0.0003  0.5000  0.5000  -0.5374   0.0000   0.2490
   2.000   0.2315   0.00808   0.00156  -0.0006  0.5000  0.5000  -0.7785   0.0000   0.2487
   3.000   0.3435   0.00857   0.00189  -0.0003  0.4290  0.5000  -1.1175   0.0000   0.2467
   4.000   0.4508   0.00963   0.00245   0.0005  0.2821  0.5000  -1.5501   0.0000   0.2441
   5.000   0.5563   0.01102   0.00329   0.0014  0.1496  0.5000  -2.0954   0.0000   0.2421
   6.000   0.6601   0.01259   0.00453   0.0026  0.0725  0.5000  -2.7076   0.0000   0.2399
   7.000   0.7627   0.01425   0.00621   0.0041  0.0461  0.5000  -3.4451   0.0000   0.2376
   8.000   0.8624   0.01608   0.00822   0.0060  0.0337  0.5000  -4.2263   0.0000   0.2350
   9.000   0.9521   0.01901   0.01141   0.0092  0.0263  0.5000  -4.9602   0.0000   0.2312
  10.000   1.0414   0.02157   0.01434   0.0122  0.0226  0.5000  -5.7982   0.0000   0.2280
  11.000   1.1056   0.02671   0.01995   0.0176  0.0184  0.5000  -6.6157   0.0000   0.2225
  12.000   1.1548   0.03153   0.02537   0.0243  0.0170  0.5000  -7.3974   0.0000   0.2159
  13.000   1.1580   0.03988   0.03440   0.0311  0.0161  0.5000  -7.8577   0.0000   0.2084
  14.000   1.1204   0.05605   0.05131   0.0267  0.0157  0.5000  -7.9234   0.0000   0.2095
  15.000   1.0049   0.09299   0.08903   0.0028  0.0161  0.5000  -6.9906   0.0000   0.2286


