xflr5 v6.10.03

 Calculated polar for: NACA 0011

 1 1 Reynolds number fixed          Mach number fixed         

 xtrf =   0.500 (top)        0.500 (bottom)
 Mach =   0.080     Re =     0.470 e 6     Ncrit =   9.000

  alpha     CL        CD       CDp       Cm    Top Xtr Bot Xtr   Cpmin    Chinge    XCp    
 ------- -------- --------- --------- -------- ------- ------- -------- --------- ---------
  -5.000  -0.5553   0.01138   0.00348  -0.0016  0.5000  0.1620  -2.0891   0.0000   0.2416
  -4.000  -0.4507   0.00993   0.00260  -0.0006  0.5000  0.3045  -1.5472   0.0000   0.2438
  -3.000  -0.3440   0.00886   0.00203   0.0003  0.5000  0.4542  -1.1169   0.0000   0.2467
  -2.000  -0.2311   0.00847   0.00167   0.0005  0.5000  0.5000  -0.7776   0.0000   0.2484
  -1.000  -0.1156   0.00839   0.00144   0.0003  0.5000  0.5000  -0.5373   0.0000   0.2487
   0.000   0.0000   0.00837   0.00137  -0.0000  0.5000  0.5000  -0.3818   0.0000   1.5252
   1.000   0.1156   0.00839   0.00144  -0.0003  0.5000  0.5000  -0.5373   0.0000   0.2487
   2.000   0.2311   0.00847   0.00167  -0.0005  0.5000  0.5000  -0.7776   0.0000   0.2484
   3.000   0.3440   0.00886   0.00203  -0.0004  0.4542  0.5000  -1.1170   0.0000   0.2467
   4.000   0.4507   0.00993   0.00260   0.0006  0.3045  0.5000  -1.5473   0.0000   0.2438
   5.000   0.5553   0.01138   0.00348   0.0016  0.1620  0.5000  -2.0892   0.0000   0.2416
   6.000   0.6587   0.01300   0.00478   0.0029  0.0795  0.5000  -2.6950   0.0000   0.2394
   7.000   0.7596   0.01488   0.00661   0.0046  0.0489  0.5000  -3.4193   0.0000   0.2368
   8.000   0.8559   0.01716   0.00910   0.0070  0.0356  0.5000  -4.1658   0.0000   0.2338
   9.000   0.9471   0.01984   0.01202   0.0099  0.0281  0.5000  -4.9113   0.0000   0.2304
  10.000   1.0294   0.02354   0.01621   0.0138  0.0243  0.5000  -5.6571   0.0000   0.2263
  11.000   1.1021   0.02733   0.02036   0.0181  0.0203  0.5000  -6.5630   0.0000   0.2219
  12.000   1.1214   0.03565   0.02955   0.0271  0.0183  0.5000  -7.0461   0.0000   0.2129
  13.000   1.1088   0.04600   0.04066   0.0316  0.0177  0.5000  -7.3493   0.0000   0.2068
  14.000   1.0455   0.06818   0.06363   0.0202  0.0176  0.5000  -7.1108   0.0000   0.2139
  16.000   0.7291   0.18878   0.18482  -0.0399  0.0266  0.5000  -2.2319   0.0000   0.2891
  17.000   0.7497   0.20498   0.20104  -0.0494  0.0205  0.5000  -2.0735   0.0000   0.2992


