xflr5 v6.10.03

 Calculated polar for: NACA 0011

 1 1 Reynolds number fixed          Mach number fixed         

 xtrf =   0.500 (top)        0.500 (bottom)
 Mach =   0.000     Re =     0.770 e 6     Ncrit =   9.000

  alpha     CL        CD       CDp       Cm    Top Xtr Bot Xtr   Cpmin    Chinge    XCp    
 ------- -------- --------- --------- -------- ------- ------- -------- --------- ---------
  -5.000  -0.5561   0.01027   0.00292  -0.0008  0.5000  0.1281  -2.0948   0.0000   0.2431
  -4.000  -0.4495   0.00905   0.00216  -0.0001  0.5000  0.2418  -1.5475   0.0000   0.2449
  -3.000  -0.3415   0.00802   0.00164   0.0004  0.5000  0.3786  -1.1134   0.0000   0.2469
  -2.000  -0.2314   0.00731   0.00134   0.0008  0.5000  0.5000  -0.7767   0.0000   0.2495
  -1.000  -0.1158   0.00725   0.00116   0.0004  0.5000  0.5000  -0.5356   0.0000   0.2498
   0.000   0.0000   0.00723   0.00112  -0.0000  0.5000  0.5000  -0.3800   0.0000   0.4558
   1.000   0.1158   0.00725   0.00116  -0.0004  0.5000  0.5000  -0.5356   0.0000   0.2498
   2.000   0.2314   0.00731   0.00134  -0.0008  0.5000  0.5000  -0.7767   0.0000   0.2495
   3.000   0.3415   0.00802   0.00164  -0.0004  0.3786  0.5000  -1.1134   0.0000   0.2469
   4.000   0.4495   0.00905   0.00216   0.0001  0.2418  0.5000  -1.5475   0.0000   0.2449
   5.000   0.5561   0.01027   0.00292   0.0008  0.1281  0.5000  -2.0949   0.0000   0.2431
   6.000   0.6619   0.01154   0.00393   0.0016  0.0662  0.5000  -2.7206   0.0000   0.2414
   7.000   0.7667   0.01283   0.00517   0.0027  0.0415  0.5000  -3.4814   0.0000   0.2395
   8.000   0.8689   0.01433   0.00677   0.0040  0.0298  0.5000  -4.2892   0.0000   0.2373
   9.000   0.9665   0.01621   0.00890   0.0060  0.0236  0.5000  -5.0995   0.0000   0.2347
  10.000   1.0496   0.01959   0.01261   0.0097  0.0188  0.5000  -5.8810   0.0000   0.2304
  11.000   1.1428   0.02117   0.01443   0.0118  0.0164  0.5000  -6.9916   0.0000   0.2280
  12.000   1.2160   0.02437   0.01796   0.0162  0.0143  0.5000  -8.0022   0.0000   0.2236
  13.000   1.2435   0.03002   0.02411   0.0251  0.0131  0.5000  -8.7031   0.0000   0.2152
  14.000   1.2128   0.04224   0.03712   0.0300  0.0125  0.5000  -8.8926   0.0000   0.2088
  15.000   1.1443   0.06562   0.06128   0.0185  0.0123  0.5000  -8.6169   0.0000   0.2151
  16.000   1.0641   0.09676   0.09292  -0.0005  0.0124  0.5000  -8.0524   0.0000   0.2298
  17.000   0.9513   0.13961   0.13620  -0.0238  0.0129  0.5000  -6.7448   0.0000   0.2535


