xflr5 v6.10.03

 Calculated polar for: S1223 MOD2015

 1 1 Reynolds number fixed          Mach number fixed         

 xtrf =   0.500 (top)        0.500 (bottom)
 Mach =   0.000     Re =     0.560 e 6     Ncrit =   9.000

  alpha     CL        CD       CDp       Cm    Top Xtr Bot Xtr   Cpmin    Chinge    XCp    
 ------- -------- --------- --------- -------- ------- ------- -------- --------- ---------
  -5.000   0.3185   0.06578   0.06143  -0.1232  0.5000  0.0243  -1.4994   0.0000   0.6491
  -4.000   0.3213   0.05561   0.05145  -0.1232  0.4972  0.0278  -1.6796   0.0000   0.6424
  -3.000   0.8052   0.01459   0.00737  -0.2605  0.4536  0.0228  -2.2095   0.0000   0.5768
  -2.000   0.9462   0.01433   0.00677  -0.2664  0.4282  0.0243  -1.6059   0.0000   0.5324
  -1.000   1.0762   0.01448   0.00668  -0.2697  0.4097  0.0272  -1.5306   0.0000   0.4993
   0.000   1.2096   0.01470   0.00694  -0.2738  0.3950  0.1183  -1.6707   0.0000   0.4731
   1.000   1.3244   0.01537   0.00780  -0.2739  0.3832  0.2637  -1.8026   0.0000   0.4517
   2.000   1.4335   0.01619   0.00859  -0.2727  0.3743  0.2989  -1.9382   0.0000   0.4332
   3.000   1.5426   0.01700   0.00944  -0.2716  0.3656  0.3377  -2.0812   0.0000   0.4172
   4.000   1.6518   0.01805   0.01056  -0.2708  0.3573  0.3919  -2.2248   0.0000   0.4032
   5.000   1.7571   0.01900   0.01175  -0.2693  0.3505  0.4808  -2.3720   0.0000   0.3906
   6.000   1.8597   0.02045   0.01314  -0.2674  0.3411  0.5000  -2.5309   0.0000   0.3792
   7.000   1.9493   0.02162   0.01448  -0.2630  0.3352  0.5000  -2.6915   0.0000   0.3683
   8.000   2.0357   0.02308   0.01602  -0.2582  0.3271  0.5000  -2.8661   0.0000   0.3582
   9.000   2.1198   0.02485   0.01796  -0.2534  0.3188  0.5000  -3.0619   0.0000   0.3487
  10.000   2.1930   0.02670   0.02001  -0.2468  0.3100  0.5000  -3.2726   0.0000   0.3395
  11.000   2.2606   0.02907   0.02261  -0.2398  0.2998  0.5000  -3.5453   0.0000   0.3307
  12.000   2.3159   0.03204   0.02574  -0.2315  0.2868  0.5000  -3.8326   0.0000   0.3222
  13.000   2.3679   0.03546   0.02948  -0.2236  0.2739  0.5000  -4.1311   0.0000   0.3142
  14.000   2.4108   0.04009   0.03440  -0.2156  0.2591  0.5000  -4.4288   0.0000   0.3066
  15.000   2.4331   0.04707   0.04162  -0.2071  0.2407  0.5000  -4.6925   0.0000   0.2996
  16.000   2.4364   0.05704   0.05192  -0.1995  0.2200  0.5000  -4.9137   0.0000   0.2936
  17.000   2.3908   0.07490   0.07008  -0.1943  0.1959  0.5000  -5.0173   0.0000   0.2899


