xflr5 v6.10.03

 Calculated polar for: S1223 MOD2015 FLAP

 1 1 Reynolds number fixed          Mach number fixed         

 xtrf =   0.500 (top)        0.500 (bottom)
 Mach =   0.000     Re =     0.260 e 6     Ncrit =   9.000

  alpha     CL        CD       CDp       Cm    Top Xtr Bot Xtr   Cpmin    Chinge    XCp    
 ------- -------- --------- --------- -------- ------- ------- -------- --------- ---------
  -5.000   0.2615   0.08223   0.07802  -0.0658  0.5000  0.0499  -0.9548  -0.0002   0.5027
  -4.000   1.0975   0.05342   0.04696  -0.2591  0.5000  0.0485  -1.4724   0.0098   0.4874
  -1.000   1.6558   0.06752   0.06041  -0.2978  0.4303  0.3407  -2.0534   0.0124   0.4244
   0.000   1.7767   0.06927   0.06210  -0.2988  0.4179  0.3664  -2.2126   0.0127   0.4106
   1.000   1.8981   0.07044   0.06306  -0.2999  0.4058  0.4011  -2.3778   0.0129   0.3983
   2.000   1.9863   0.07173   0.06463  -0.2958  0.3960  0.4363  -2.5138   0.0130   0.3871
   3.000   2.0788   0.07215   0.06510  -0.2924  0.3868  0.4758  -2.6703   0.0131   0.3767
   4.000   2.1742   0.07418   0.06734  -0.2899  0.3769  0.5000  -2.8416   0.0133   0.3671
   5.000   2.2667   0.07639   0.06964  -0.2871  0.3667  0.5000  -3.0319   0.0136   0.3580
   7.000   2.3985   0.08106   0.07479  -0.2742  0.3459  0.5000  -3.4243   0.0140   0.3407
   8.000   2.4362   0.08522   0.07940  -0.2645  0.3345  0.5000  -3.6704   0.0142   0.3323
   9.000   2.4894   0.08761   0.08189  -0.2571  0.3220  0.5000  -3.9688   0.0144   0.3243
  10.000   2.4786   0.09579   0.09064  -0.2431  0.3088  0.5000  -4.1590   0.0148   0.3160
  11.000   2.4717   0.10426   0.09958  -0.2317  0.2943  0.5000  -4.3588   0.0152   0.3085
  12.000   2.4632   0.11358   0.10931  -0.2226  0.2796  0.5000  -4.5593   0.0155   0.3018
  13.000   2.4408   0.12528   0.12146  -0.2160  0.2633  0.5000  -4.7205   0.0159   0.2963
  14.000   2.3969   0.14038   0.13703  -0.2135  0.2432  0.5000  -4.8157   0.0164   0.2930
  15.000   2.3587   0.15464   0.15149  -0.2149  0.2206  0.5000  -4.9135   0.0168   0.2911
  16.000   2.2987   0.17223   0.16945  -0.2216  0.1953  0.5000  -4.9277   0.0173   0.2921
  17.000   2.2623   0.18593   0.18321  -0.2282  0.1706  0.5000  -5.0006   0.0178   0.2924


