xflr5 v6.10.03

 Calculated polar for: S1223 MOD2015 FLAP

 1 1 Reynolds number fixed          Mach number fixed         

 xtrf =   0.500 (top)        0.500 (bottom)
 Mach =   0.000     Re =     0.420 e 6     Ncrit =   9.000

  alpha     CL        CD       CDp       Cm    Top Xtr Bot Xtr   Cpmin    Chinge    XCp    
 ------- -------- --------- --------- -------- ------- ------- -------- --------- ---------
  -5.000   0.2638   0.08002   0.07638  -0.0676  0.5000  0.0349  -1.0693  -0.0002   0.5076
  -4.000   0.3162   0.07055   0.06697  -0.0743  0.5000  0.0399  -1.0415   0.0003   0.4839
  -2.000   1.5772   0.07244   0.06599  -0.3048  0.4121  0.2888  -1.9518   0.0132   0.4398
  -1.000   1.6858   0.07380   0.06719  -0.3038  0.3996  0.3141  -2.0936   0.0134   0.4245
   0.000   1.7909   0.07548   0.06878  -0.3022  0.3886  0.3373  -2.2428   0.0136   0.4109
   1.000   1.8947   0.07639   0.06974  -0.3005  0.3792  0.3683  -2.3928   0.0137   0.3986
   2.000   1.9868   0.07798   0.07141  -0.2970  0.3702  0.4068  -2.5345   0.0139   0.3873
   3.000   2.0839   0.07821   0.07166  -0.2944  0.3613  0.4496  -2.6959   0.0139   0.3768
   4.000   2.1577   0.08012   0.07383  -0.2884  0.3532  0.4916  -2.8440   0.0141   0.3669
   5.000   2.2453   0.08115   0.07487  -0.2847  0.3436  0.5000  -3.0276   0.0142   0.3577
   6.000   2.3071   0.08407   0.07810  -0.2775  0.3353  0.5000  -3.2023   0.0144   0.3487
   7.000   2.3688   0.08633   0.08046  -0.2706  0.3252  0.5000  -3.4037   0.0145   0.3401
   8.000   2.4160   0.08988   0.08437  -0.2622  0.3151  0.5000  -3.6591   0.0147   0.3318
   9.000   2.4552   0.09393   0.08857  -0.2533  0.3028  0.5000  -3.9311   0.0149   0.3236
  10.000   2.4679   0.10117   0.09621  -0.2424  0.2896  0.5000  -4.1659   0.0151   0.3157
  11.000   2.4850   0.10781   0.10325  -0.2335  0.2762  0.5000  -4.4172   0.0154   0.3084
  12.000   2.4897   0.11599   0.11177  -0.2254  0.2605  0.5000  -4.6485   0.0156   0.3017
  13.000   2.4774   0.12632   0.12244  -0.2190  0.2415  0.5000  -4.8368   0.0160   0.2961
  14.000   2.4437   0.13935   0.13571  -0.2157  0.2200  0.5000  -4.9627   0.0164   0.2922
  15.000   2.3952   0.15458   0.15130  -0.2171  0.1957  0.5000  -5.0401   0.0168   0.2906
  16.000   2.3341   0.17168   0.16858  -0.2229  0.1711  0.5000  -5.0590   0.0173   0.2913
  17.000   2.2829   0.18744   0.18448  -0.2307  0.1477  0.5000  -5.0941   0.0179   0.2926


