xflr5 v6.10.03

 Calculated polar for: S1223 MOD2015 FLAP

 1 1 Reynolds number fixed          Mach number fixed         

 xtrf =   0.500 (top)        0.500 (bottom)
 Mach =   0.000     Re =     0.540 e 6     Ncrit =   9.000

  alpha     CL        CD       CDp       Cm    Top Xtr Bot Xtr   Cpmin    Chinge    XCp    
 ------- -------- --------- --------- -------- ------- ------- -------- --------- ---------
  -5.000   0.9465   0.05170   0.04623  -0.2512  0.4839  0.0281  -1.8155   0.0093   0.5195
  -4.000   1.1850   0.05901   0.05310  -0.2750  0.4436  0.0320  -1.5474   0.0111   0.4833
  -3.000   1.4831   0.07206   0.06601  -0.3083  0.4129  0.2284  -1.8332   0.0134   0.4566
  -2.000   1.5928   0.07415   0.06797  -0.3076  0.3980  0.2747  -1.9703   0.0135   0.4396
  -1.000   1.6939   0.07568   0.06935  -0.3054  0.3856  0.3015  -2.1065   0.0137   0.4246
   0.000   1.7946   0.07731   0.07100  -0.3032  0.3764  0.3236  -2.2517   0.0139   0.4110
   1.000   1.8906   0.07885   0.07251  -0.3003  0.3671  0.3536  -2.3965   0.0140   0.3987
   2.000   1.9853   0.08002   0.07376  -0.2973  0.3590  0.3907  -2.5403   0.0141   0.3874
   3.000   2.0711   0.08156   0.07544  -0.2930  0.3514  0.4319  -2.6896   0.0143   0.3768
   4.000   2.1572   0.08225   0.07614  -0.2888  0.3418  0.4749  -2.8504   0.0143   0.3670
   5.000   2.2295   0.08444   0.07859  -0.2829  0.3347  0.5000  -3.0154   0.0145   0.3576
   6.000   2.3010   0.08635   0.08057  -0.2771  0.3254  0.5000  -3.2019   0.0146   0.3487
   7.000   2.3621   0.08885   0.08332  -0.2701  0.3165  0.5000  -3.4001   0.0147   0.3401
   8.000   2.4090   0.09248   0.08709  -0.2617  0.3056  0.5000  -3.6547   0.0149   0.3317
   9.000   2.4460   0.09722   0.09217  -0.2527  0.2935  0.5000  -3.9223   0.0150   0.3236
  10.000   2.4752   0.10258   0.09779  -0.2436  0.2807  0.5000  -4.1886   0.0152   0.3158
  11.000   2.4975   0.10863   0.10409  -0.2351  0.2667  0.5000  -4.4540   0.0154   0.3085
  12.000   2.5063   0.11626   0.11202  -0.2272  0.2494  0.5000  -4.6960   0.0157   0.3017
  13.000   2.5000   0.12561   0.12168  -0.2206  0.2295  0.5000  -4.9004   0.0159   0.2960
  14.000   2.4607   0.13919   0.13548  -0.2171  0.2048  0.5000  -5.0156   0.0164   0.2921
  15.000   2.4032   0.15542   0.15196  -0.2186  0.1779  0.5000  -5.0716   0.0169   0.2909
  16.000   2.3385   0.17300   0.16975  -0.2248  0.1532  0.5000  -5.0819   0.0174   0.2918
  17.000   2.2782   0.19013   0.18700  -0.2336  0.1303  0.5000  -5.0867   0.0180   0.2939


