XFLR5 v6.09.06

 Calculated polar for: S1223 MOD2015

 1 1 Reynolds number fixed          Mach number fixed         

 xtrf =   1.000 (top)        1.000 (bottom)
 Mach =   0.000     Re =     0.420 e 6     Ncrit =   9.000

  alpha     CL        CD       CDp       Cm    Top Xtr Bot Xtr   Cpmin    Chinge    XCp    
 ------- -------- --------- --------- -------- ------- ------- -------- --------- ---------
 -10.000   0.0322   0.12828   0.12570  -0.0743  0.9622  0.0192  -1.1301   0.0000   2.7840
  -9.500   0.0645   0.12060   0.11801  -0.0824  0.9579  0.0200  -1.2685   0.0000   1.6377
  -9.000   0.0826   0.11362   0.11106  -0.0881  0.9493  0.0201  -1.4638   0.0000   1.3998
  -8.500   0.1182   0.10764   0.10510  -0.0900  0.9406  0.0205  -1.2750   0.0000   1.0667
  -8.000   0.1467   0.10200   0.09948  -0.0932  0.9293  0.0212  -1.2156   0.0000   0.9268
  -7.500   0.1677   0.09651   0.09402  -0.0951  0.9128  0.0223  -1.2242   0.0000   0.8512
  -7.000   0.1784   0.08924   0.08675  -0.0997  0.8919  0.0238  -1.5130   0.0000   0.8394
  -6.500   0.2499   0.08180   0.07918  -0.1106  0.8535  0.0252  -1.2817   0.0000   0.7131
  -6.000   0.3546   0.07100   0.06738  -0.1370  0.7021  0.0282  -1.2990   0.0000   0.6511
  -5.500   0.3479   0.06967   0.06554  -0.1302  0.6051  0.0295  -1.2542   0.0000   0.6374
  -5.000   0.3146   0.06568   0.06148  -0.1255  0.5724  0.0317  -1.5453   0.0000   0.6616
  -4.500   0.3270   0.06407   0.05973  -0.1207  0.5394  0.0325  -1.3527   0.0000   0.6291
  -4.000   0.3345   0.06090   0.05650  -0.1186  0.5181  0.0341  -1.3049   0.0000   0.6126
  -3.500   0.3469   0.05395   0.04951  -0.1242  0.5031  0.0368  -1.4565   0.0000   0.6145
  -3.000   0.3771   0.05039   0.04588  -0.1265  0.4872  0.0389  -1.3336   0.0000   0.5899
  -2.500   0.8563   0.01563   0.00789  -0.2592  0.4589  0.0273  -1.8732   0.0000   0.5548
  -2.000   0.9301   0.01545   0.00758  -0.2630  0.4460  0.0292  -1.5765   0.0000   0.5337
  -1.500   0.9991   0.01547   0.00746  -0.2656  0.4349  0.0308  -1.4497   0.0000   0.5156
  -1.000   1.0663   0.01557   0.00739  -0.2677  0.4253  0.0330  -1.5188   0.0000   0.4998
  -0.500   1.1316   0.01580   0.00751  -0.2694  0.4172  0.0393  -1.5866   0.0000   0.4857
   0.000   1.2070   0.01571   0.00780  -0.2735  0.4099  0.2041  -1.6627   0.0000   0.4734
   0.500   1.2608   0.01624   0.00826  -0.2727  0.4029  0.2555  -1.7242   0.0000   0.4621
   1.000   1.3180   0.01673   0.00872  -0.2727  0.3972  0.2813  -1.7913   0.0000   0.4518
   1.500   1.3726   0.01712   0.00911  -0.2720  0.3924  0.2992  -1.8572   0.0000   0.4421
   2.000   1.4284   0.01752   0.00951  -0.2717  0.3876  0.3191  -1.9277   0.0000   0.4333
   2.500   1.4864   0.01803   0.00996  -0.2719  0.3820  0.3360  -2.0011   0.0000   0.4251
   3.000   1.5452   0.01856   0.01051  -0.2724  0.3777  0.3576  -2.0749   0.0000   0.4175
   3.500   1.5992   0.01899   0.01102  -0.2718  0.3739  0.3835  -2.1455   0.0000   0.4102
   4.000   1.6530   0.01945   0.01157  -0.2712  0.3694  0.4163  -2.2168   0.0000   0.4034
   4.500   1.7073   0.02000   0.01220  -0.2708  0.3654  0.4606  -2.2904   0.0000   0.3970
   5.000   1.7703   0.02079   0.01302  -0.2723  0.3605  0.5200  -2.3762   0.0000   0.3912
   5.500   1.8220   0.02134   0.01381  -0.2714  0.3574  0.5963  -2.4550   0.0000   0.3854
   6.000   1.8729   0.02189   0.01465  -0.2704  0.3534  0.7173  -2.5362   0.0000   0.3798
   7.000   1.9566   0.02292   0.01592  -0.2647  0.3455  1.0000  -2.6920   0.0000   0.3687
   7.500   2.0118   0.02392   0.01685  -0.2648  0.3404  1.0000  -2.7906   0.0000   0.3640
   8.000   2.0501   0.02466   0.01774  -0.2614  0.3371  1.0000  -2.8745   0.0000   0.3589
   8.500   2.0891   0.02549   0.01867  -0.2583  0.3327  1.0000  -2.9689   0.0000   0.3540
   9.000   2.1283   0.02637   0.01959  -0.2554  0.3284  1.0000  -3.0645   0.0000   0.3492
   9.500   2.1767   0.02748   0.02064  -0.2544  0.3226  1.0000  -3.1802   0.0000   0.3450
  10.000   2.2051   0.02854   0.02193  -0.2495  0.3190  1.0000  -3.2815   0.0000   0.3402
  10.500   2.2352   0.02968   0.02323  -0.2452  0.3142  1.0000  -3.4040   0.0000   0.3356
  11.000   2.2637   0.03091   0.02453  -0.2408  0.3088  1.0000  -3.5444   0.0000   0.3310
  11.500   2.2964   0.03238   0.02607  -0.2373  0.3032  1.0000  -3.6930   0.0000   0.3269
  12.000   2.3157   0.03403   0.02796  -0.2318  0.2975  1.0000  -3.8247   0.0000   0.3224
  12.500   2.3347   0.03584   0.02988  -0.2266  0.2908  1.0000  -3.9610   0.0000   0.3181
  13.000   2.3541   0.03802   0.03221  -0.2218  0.2842  1.0000  -4.0982   0.0000   0.3141
  13.500   2.3715   0.04037   0.03477  -0.2172  0.2772  1.0000  -4.2333   0.0000   0.3101
  14.000   2.3854   0.04329   0.03776  -0.2126  0.2703  1.0000  -4.3693   0.0000   0.3064
  14.500   2.3991   0.04639   0.04113  -0.2085  0.2625  1.0000  -4.5047   0.0000   0.3028
  15.000   2.4030   0.05063   0.04546  -0.2041  0.2541  1.0000  -4.6200   0.0000   0.2995
  15.500   2.4065   0.05528   0.05034  -0.2004  0.2442  1.0000  -4.7335   0.0000   0.2964
  16.000   2.4014   0.06128   0.05652  -0.1970  0.2345  1.0000  -4.8266   0.0000   0.2937
  16.500   2.3822   0.06950   0.06487  -0.1942  0.2239  1.0000  -4.8852   0.0000   0.2917
  17.000   2.3591   0.07900   0.07460  -0.1929  0.2125  1.0000  -4.9309   0.0000   0.2903


