XFLR5 v6.09.06

 Calculated polar for: S1223 MOD2015

 1 1 Reynolds number fixed          Mach number fixed         

 xtrf =   1.000 (top)        1.000 (bottom)
 Mach =   0.080     Re =     0.180 e 6     Ncrit =   9.000

  alpha     CL        CD       CDp       Cm    Top Xtr Bot Xtr   Cpmin    Chinge    XCp    
 ------- -------- --------- --------- -------- ------- ------- -------- --------- ---------
  -9.500  -0.0728   0.14069   0.13721  -0.0441  0.9789  0.0351  -1.1492   0.0000  -0.4386
  -9.000  -0.0412   0.13353   0.13005  -0.0540  0.9688  0.0363  -1.2858   0.0000  -1.2048
  -8.500   0.0054   0.12574   0.12227  -0.0598  0.9596  0.0379  -1.1584   0.0000  12.4560
  -8.000   0.0408   0.11873   0.11528  -0.0684  0.9487  0.0409  -1.2256   0.0000   2.0606
  -7.500   0.0796   0.11110   0.10767  -0.0746  0.9370  0.0423  -1.2047   0.0000   1.2541
  -7.000   0.1163   0.10442   0.10101  -0.0811  0.9229  0.0464  -1.1989   0.0000   0.9903
  -6.500   0.1409   0.09804   0.09470  -0.0837  0.9007  0.0485  -1.1935   0.0000   0.8766
  -6.000   0.1718   0.09187   0.08856  -0.0871  0.8768  0.0521  -1.1602   0.0000   0.7812
  -5.500   0.1873   0.08586   0.08253  -0.0918  0.8396  0.0545  -1.2635   0.0000   0.7606
  -5.000   0.2744   0.07638   0.07275  -0.1078  0.7812  0.0607  -1.1438   0.0000   0.6558
  -4.500   0.3670   0.06787   0.06338  -0.1257  0.6722  0.0660  -1.0281   0.0000   0.6015
  -4.000   0.4148   0.04137   0.03638  -0.1199  0.5715  0.0762  -0.9703   0.0000   0.5426
  -3.500   0.4138   0.03698   0.03201  -0.1232  0.5560  0.0820  -0.9740   0.0000   0.5502
  -3.000   0.4396   0.03390   0.02882  -0.1219  0.5386  0.0886  -1.0041   0.0000   0.5285
  -2.500   0.4776   0.02937   0.02412  -0.1288  0.5253  0.0988  -1.0370   0.0000   0.5200
  -2.000   0.9089   0.00617  -0.00236  -0.2502  0.5040  0.0572  -1.3004   0.0000   0.5256
  -1.500   0.9850   0.00592  -0.00264  -0.2545  0.4905  0.0647  -1.3703   0.0000   0.5076
  -1.000   1.0882   0.00573  -0.00269  -0.2649  0.4779  0.2110  -1.4598   0.0000   0.4918
  -0.500   1.1416   0.00666  -0.00190  -0.2640  0.4688  0.2758  -1.5180   0.0000   0.4787
   0.000   1.2008   0.00755  -0.00112  -0.2645  0.4610  0.3136  -1.5842   0.0000   0.4668
   0.500   1.2529   0.00813  -0.00049  -0.2636  0.4532  0.3443  -1.6442   0.0000   0.4561
   1.000   1.3140   0.00859  -0.00019  -0.2647  0.4460  0.3625  -1.7141   0.0000   0.4462
   1.500   1.3807   0.00919   0.00026  -0.2670  0.4398  0.3791  -1.7897   0.0000   0.4373
   2.000   1.4352   0.00976   0.00094  -0.2668  0.4339  0.3970  -1.8550   0.0000   0.4289
   2.500   1.4921   0.01037   0.00155  -0.2671  0.4275  0.4190  -1.9242   0.0000   0.4212
   3.000   1.5544   0.01107   0.00216  -0.2685  0.4222  0.4482  -1.9989   0.0000   0.4140
   3.500   1.6105   0.01206   0.00330  -0.2688  0.4172  0.4844  -2.0706   0.0000   0.4073
   4.000   1.6602   0.01305   0.00451  -0.2678  0.4113  0.5282  -2.1411   0.0000   0.4007
   4.500   1.7141   0.01399   0.00563  -0.2676  0.4062  0.5881  -2.2180   0.0000   0.3946
   5.000   1.7713   0.01487   0.00662  -0.2680  0.4015  0.6755  -2.3019   0.0000   0.3888
   5.500   1.8099   0.01602   0.00814  -0.2647  0.3967  0.8173  -2.3683   0.0000   0.3828
   6.000   1.8409   0.01745   0.00978  -0.2602  0.3916  1.0000  -2.4317   0.0000   0.3770
   6.500   1.8861   0.01893   0.01129  -0.2585  0.3861  1.0000  -2.5148   0.0000   0.3717
   7.000   1.9405   0.02019   0.01244  -0.2587  0.3814  1.0000  -2.6117   0.0000   0.3669
   7.500   1.9759   0.02255   0.01499  -0.2554  0.3762  1.0000  -2.6907   0.0000   0.3619
   8.000   2.0023   0.02498   0.01769  -0.2504  0.3704  1.0000  -2.7657   0.0000   0.3567
   8.500   2.0388   0.02669   0.01947  -0.2472  0.3650  1.0000  -2.8557   0.0000   0.3518
   9.000   2.0973   0.02810   0.02077  -0.2483  0.3597  1.0000  -2.9836   0.0000   0.3478
   9.500   2.0762   0.03239   0.02561  -0.2350  0.3542  1.0000  -3.0128   0.0000   0.3416
  10.000   2.0731   0.03587   0.02937  -0.2254  0.3483  1.0000  -3.0680   0.0000   0.3361
  10.500   2.1265   0.03642   0.02982  -0.2252  0.3428  1.0000  -3.2340   0.0000   0.3321
  11.000   2.0776   0.04377   0.03771  -0.2097  0.3370  1.0000  -3.2384   0.0000   0.3260
  12.000   2.2844   0.05001   0.04344  -0.2294  0.3278  1.0000  -3.7222   0.0000   0.3232
  12.500   2.3385   0.05045   0.04379  -0.2292  0.3215  1.0000  -3.9242   0.0000   0.3196
  13.000   2.2798   0.05652   0.05049  -0.2141  0.3149  1.0000  -3.9089   0.0000   0.3143
  13.500   2.2994   0.05801   0.05206  -0.2095  0.3080  1.0000  -4.0482   0.0000   0.3102
  14.000   2.2901   0.06223   0.05653  -0.2029  0.3009  1.0000  -4.1280   0.0000   0.3063
  14.500   2.2419   0.07021   0.06494  -0.1949  0.2930  1.0000  -4.1247   0.0000   0.3032
  15.000   2.2827   0.07030   0.06497  -0.1931  0.2859  1.0000  -4.3193   0.0000   0.2995
  15.500   2.1657   0.08889   0.08424  -0.1884  0.2763  1.0000  -4.1439   0.0000   0.3003
  16.000   2.1720   0.09360   0.08905  -0.1874  0.2681  1.0000  -4.2533   0.0000   0.2981
  16.500   2.1278   0.10618   0.10189  -0.1891  0.2573  1.0000  -4.2309   0.0000   0.2991
  17.000   2.0133   0.13198   0.12805  -0.1979  0.2416  1.0000  -3.9994   0.0000   0.3070


