XFLR5 v6.09.06

 Calculated polar for: S1223 MOD2015

 1 1 Reynolds number fixed          Mach number fixed         

 xtrf =   1.000 (top)        1.000 (bottom)
 Mach =   0.080     Re =     0.380 e 6     Ncrit =   9.000

  alpha     CL        CD       CDp       Cm    Top Xtr Bot Xtr   Cpmin    Chinge    XCp    
 ------- -------- --------- --------- -------- ------- ------- -------- --------- ---------
 -10.000   0.1634   0.10339   0.10090  -0.0890  0.9365  0.0213  -0.8537   0.0000   0.8257
  -9.500   0.1821   0.09755   0.09508  -0.0911  0.9260  0.0222  -0.8632   0.0000   0.7766
  -9.000   0.1954   0.09111   0.08865  -0.0938  0.9143  0.0234  -0.9909   0.0000   0.7539
  -7.500   0.1576   0.09692   0.09432  -0.0947  0.9150  0.0239  -1.3551   0.0000   0.8876
  -6.500   0.1997   0.08417   0.08155  -0.1044  0.8624  0.0274  -1.5910   0.0000   0.7978
  -6.000   0.3328   0.07111   0.06786  -0.1369  0.7714  0.0315  -1.4969   0.0000   0.6771
  -5.000   0.3473   0.06782   0.06345  -0.1260  0.5730  0.0341  -1.2238   0.0000   0.6239
  -4.500   0.3198   0.06281   0.05845  -0.1241  0.5514  0.0363  -1.5185   0.0000   0.6484
  -4.000   0.3345   0.06083   0.05634  -0.1197  0.5259  0.0371  -1.3371   0.0000   0.6159
  -3.500   0.3505   0.05732   0.05277  -0.1195  0.5073  0.0392  -1.2712   0.0000   0.5970
  -3.000   0.3814   0.05021   0.04564  -0.1285  0.4935  0.0425  -1.3508   0.0000   0.5913
  -2.500   0.5313   0.03302   0.02812  -0.1754  0.4777  0.0505  -1.5748   0.0000   0.5825
  -2.000   0.9241   0.01598   0.00803  -0.2618  0.4517  0.0311  -1.5793   0.0000   0.5341
  -1.500   0.9979   0.01602   0.00785  -0.2654  0.4396  0.0327  -1.4519   0.0000   0.5157
  -1.000   1.0655   0.01605   0.00778  -0.2675  0.4304  0.0354  -1.5211   0.0000   0.4998
  -0.500   1.1332   0.01631   0.00786  -0.2696  0.4216  0.0432  -1.5909   0.0000   0.4857
   0.000   1.2096   0.01628   0.00824  -0.2740  0.4146  0.2183  -1.6673   0.0000   0.4733
   0.500   1.2635   0.01674   0.00870  -0.2731  0.4078  0.2638  -1.7294   0.0000   0.4619
   1.000   1.3210   0.01732   0.00916  -0.2730  0.4014  0.2872  -1.7974   0.0000   0.4516
   1.500   1.3790   0.01778   0.00961  -0.2731  0.3966  0.3077  -1.8656   0.0000   0.4420
   2.000   1.4354   0.01818   0.01002  -0.2728  0.3918  0.3255  -1.9368   0.0000   0.4331
   2.500   1.4910   0.01861   0.01042  -0.2724  0.3867  0.3420  -2.0085   0.0000   0.4248
   3.000   1.5510   0.01921   0.01095  -0.2730  0.3816  0.3641  -2.0840   0.0000   0.4172
   3.500   1.6110   0.01977   0.01161  -0.2737  0.3775  0.3915  -2.1591   0.0000   0.4102
   4.000   1.6639   0.02024   0.01219  -0.2728  0.3733  0.4258  -2.2295   0.0000   0.4033
   4.500   1.7186   0.02077   0.01285  -0.2724  0.3691  0.4712  -2.3044   0.0000   0.3969
   5.000   1.7742   0.02138   0.01355  -0.2722  0.3651  0.5303  -2.3852   0.0000   0.3909
   5.500   1.8418   0.02230   0.01456  -0.2747  0.3599  0.6186  -2.4785   0.0000   0.3856
   6.000   1.8892   0.02280   0.01544  -0.2727  0.3567  0.7602  -2.5574   0.0000   0.3798
   7.000   1.9690   0.02387   0.01674  -0.2661  0.3486  1.0000  -2.7102   0.0000   0.3686
   7.500   2.0163   0.02469   0.01753  -0.2644  0.3443  1.0000  -2.8025   0.0000   0.3636
   8.000   2.0679   0.02573   0.01859  -0.2638  0.3397  1.0000  -2.9013   0.0000   0.3589
   8.500   2.1033   0.02660   0.01962  -0.2599  0.3356  1.0000  -2.9919   0.0000   0.3538
   9.000   2.1406   0.02752   0.02064  -0.2564  0.3311  1.0000  -3.0857   0.0000   0.3490
   9.500   2.1785   0.02848   0.02163  -0.2532  0.3264  1.0000  -3.1897   0.0000   0.3443
  10.000   2.2213   0.02971   0.02290  -0.2511  0.3212  1.0000  -3.3107   0.0000   0.3400
  10.500   2.2466   0.03098   0.02441  -0.2458  0.3167  1.0000  -3.4275   0.0000   0.3353
  11.000   2.2725   0.03225   0.02581  -0.2408  0.3111  1.0000  -3.5647   0.0000   0.3306
  11.500   2.3050   0.03364   0.02720  -0.2372  0.3055  1.0000  -3.7149   0.0000   0.3264
  12.000   2.3226   0.03551   0.02934  -0.2313  0.3001  1.0000  -3.8438   0.0000   0.3219
  12.500   2.3378   0.03746   0.03147  -0.2255  0.2932  1.0000  -3.9741   0.0000   0.3175
  13.000   2.3569   0.03966   0.03372  -0.2207  0.2865  1.0000  -4.1125   0.0000   0.3134
  13.500   2.3675   0.04242   0.03679  -0.2152  0.2795  1.0000  -4.2344   0.0000   0.3094
  14.000   2.3800   0.04541   0.03987  -0.2105  0.2726  1.0000  -4.3676   0.0000   0.3056
  14.500   2.3889   0.04904   0.04378  -0.2061  0.2651  1.0000  -4.4934   0.0000   0.3021
  15.000   2.3920   0.05344   0.04829  -0.2018  0.2566  1.0000  -4.6074   0.0000   0.2988
  15.500   2.3913   0.05869   0.05381  -0.1982  0.2471  1.0000  -4.7115   0.0000   0.2959
  16.000   2.3804   0.06553   0.06079  -0.1950  0.2374  1.0000  -4.7913   0.0000   0.2935
  16.500   2.3610   0.07410   0.06956  -0.1929  0.2265  1.0000  -4.8479   0.0000   0.2917
  17.000   2.3333   0.08451   0.08022  -0.1921  0.2154  1.0000  -4.8798   0.0000   0.2908


