xflr5 v6.10.03

 Calculated polar for: S1223 MOD2015 FLAP

 1 1 Reynolds number fixed          Mach number fixed         

 xtrf =   0.500 (top)        0.500 (bottom)
 Mach =   0.000     Re =     0.940 e 6     Ncrit =   9.000

  alpha     CL        CD       CDp       Cm    Top Xtr Bot Xtr   Cpmin    Chinge    XCp    
 ------- -------- --------- --------- -------- ------- ------- -------- --------- ---------
  -5.000   1.0296   0.05480   0.04965  -0.2664  0.4406  0.0225  -1.7093   0.0102   0.5127
  -3.000   1.5047   0.07259   0.06695  -0.3120  0.3829  0.1777  -1.8586   0.0136   0.4561
  -2.000   1.6193   0.07508   0.06945  -0.3122  0.3725  0.2504  -2.0024   0.0139   0.4393
  -1.000   1.7197   0.07683   0.07112  -0.3100  0.3613  0.2785  -2.1382   0.0140   0.4245
   0.000   1.8171   0.07836   0.07266  -0.3073  0.3542  0.2994  -2.2826   0.0142   0.4111
   1.000   1.9100   0.07998   0.07424  -0.3040  0.3440  0.3283  -2.4259   0.0143   0.3989
   2.000   2.0010   0.08139   0.07574  -0.3004  0.3388  0.3623  -2.5687   0.0144   0.3877
   3.000   2.0878   0.08289   0.07733  -0.2963  0.3316  0.4024  -2.7173   0.0145   0.3772
   4.000   2.1689   0.08441   0.07888  -0.2915  0.3222  0.4435  -2.8729   0.0146   0.3673
   5.000   2.2464   0.08596   0.08064  -0.2862  0.3164  0.4858  -3.0444   0.0147   0.3580
   6.000   2.3129   0.08824   0.08300  -0.2796  0.3071  0.5000  -3.2260   0.0148   0.3490
   7.000   2.3761   0.09052   0.08546  -0.2728  0.2988  0.5000  -3.4287   0.0149   0.3404
   8.000   2.4310   0.09338   0.08839  -0.2653  0.2851  0.5000  -3.7022   0.0150   0.3321
   9.000   2.4817   0.09651   0.09172  -0.2576  0.2736  0.5000  -3.9999   0.0151   0.3240
  10.000   2.5202   0.10069   0.09608  -0.2490  0.2588  0.5000  -4.2880   0.0152   0.3162
  11.000   2.5411   0.10661   0.10205  -0.2398  0.2320  0.5000  -4.5610   0.0154   0.3088
  12.000   2.5322   0.11591   0.11137  -0.2301  0.1968  0.5000  -4.7696   0.0157   0.3020
  13.000   2.4999   0.12824   0.12381  -0.2226  0.1670  0.5000  -4.9159   0.0161   0.2966
  14.000   2.4498   0.14322   0.13899  -0.2199  0.1439  0.5000  -5.0008   0.0165   0.2935
  15.000   2.3931   0.15947   0.15551  -0.2222  0.1245  0.5000  -5.0544   0.0170   0.2926
  16.000   2.3291   0.17709   0.17336  -0.2288  0.1068  0.5000  -5.0666   0.0176   0.2937
  17.000   2.2797   0.19271   0.18916  -0.2366  0.0902  0.5000  -5.1058   0.0181   0.2951


