XFLR5 v6.09.06

 Calculated polar for: S1223 MOD2015

 1 1 Reynolds number fixed          Mach number fixed         

 xtrf =   1.000 (top)        1.000 (bottom)
 Mach =   0.000     Re =     0.200 e 6     Ncrit =   9.000

  alpha     CL        CD       CDp       Cm    Top Xtr Bot Xtr   Cpmin    Chinge    XCp    
 ------- -------- --------- --------- -------- ------- ------- -------- --------- ---------
 -10.000  -0.0940   0.14523   0.14186  -0.0417  0.9831  0.0312  -1.1865   0.0000  -0.2606
  -9.500  -0.0575   0.13757   0.13421  -0.0502  0.9753  0.0319  -1.2379   0.0000  -0.7325
  -9.000  -0.0152   0.13035   0.12699  -0.0569  0.9670  0.0332  -1.1522   0.0000  -3.8936
  -8.500   0.0212   0.12314   0.11979  -0.0648  0.9579  0.0356  -1.1931   0.0000   3.5863
  -8.000   0.0564   0.11566   0.11233  -0.0719  0.9478  0.0368  -1.2263   0.0000   1.6241
  -7.500   0.0954   0.10889   0.10558  -0.0775  0.9362  0.0392  -1.1697   0.0000   1.1189
  -7.000   0.1222   0.10183   0.09856  -0.0853  0.9221  0.0417  -1.2982   0.0000   0.9893
  -6.500   0.1514   0.09623   0.09301  -0.0853  0.8992  0.0445  -1.1738   0.0000   0.8438
  -6.000   0.1672   0.09004   0.08684  -0.0909  0.8754  0.0476  -1.3091   0.0000   0.8192
  -5.500   0.2087   0.08368   0.08044  -0.0926  0.8345  0.0501  -1.1615   0.0000   0.7118
  -5.000   0.3070   0.07262   0.06896  -0.1160  0.7664  0.0555  -1.1380   0.0000   0.6401
  -4.500   0.3457   0.06605   0.06172  -0.1328  0.6656  0.0617  -1.3077   0.0000   0.6438
  -4.000   0.3697   0.06323   0.05843  -0.1260  0.6069  0.0636  -1.0970   0.0000   0.5982
  -3.500   0.3936   0.05699   0.05202  -0.1377  0.5786  0.0709  -1.2385   0.0000   0.6056
  -3.000   0.4149   0.05485   0.04970  -0.1312  0.5540  0.0735  -1.0756   0.0000   0.5703
  -2.500   0.5473   0.03629   0.03074  -0.1769  0.5350  0.0640  -1.5365   0.0000   0.5757
  -2.000   0.5918   0.03728   0.03160  -0.1751  0.5169  0.0869  -1.2374   0.0000   0.5469
  -1.500   0.9911   0.01909   0.01019  -0.2639  0.4901  0.0547  -1.4282   0.0000   0.5162
  -1.000   1.0774   0.01918   0.01011  -0.2703  0.4774  0.0674  -1.5074   0.0000   0.4998
  -0.500   1.1604   0.01941   0.01053  -0.2761  0.4664  0.2520  -1.5858   0.0000   0.4858
   0.000   1.2200   0.02037   0.01140  -0.2764  0.4581  0.2944  -1.6485   0.0000   0.4735
   0.500   1.2771   0.02098   0.01196  -0.2762  0.4502  0.3240  -1.7134   0.0000   0.4623
   1.000   1.3396   0.02165   0.01250  -0.2773  0.4426  0.3489  -1.7836   0.0000   0.4521
   1.500   1.4023   0.02222   0.01299  -0.2786  0.4364  0.3654  -1.8550   0.0000   0.4428
   2.000   1.4616   0.02272   0.01350  -0.2791  0.4303  0.3828  -1.9258   0.0000   0.4342
   2.500   1.5228   0.02331   0.01401  -0.2800  0.4244  0.4049  -1.9998   0.0000   0.4263
   3.000   1.5877   0.02420   0.01487  -0.2819  0.4187  0.4316  -2.0763   0.0000   0.4190
   3.500   1.6420   0.02485   0.01572  -0.2814  0.4138  0.4669  -2.1435   0.0000   0.4119
   4.000   1.6983   0.02553   0.01655  -0.2815  0.4083  0.5117  -2.2182   0.0000   0.4053
   4.500   1.7578   0.02627   0.01737  -0.2822  0.4032  0.5738  -2.3010   0.0000   0.3992
   5.000   1.8190   0.02747   0.01873  -0.2834  0.3986  0.6696  -2.3849   0.0000   0.3935
   6.000   1.8981   0.02875   0.02057  -0.2767  0.3890  1.0000  -2.5218   0.0000   0.3815
   6.500   1.9510   0.02971   0.02146  -0.2762  0.3842  1.0000  -2.6111   0.0000   0.3763
   7.000   2.0096   0.03122   0.02285  -0.2772  0.3792  1.0000  -2.7107   0.0000   0.3716
   7.500   2.0458   0.03235   0.02425  -0.2735  0.3745  1.0000  -2.7867   0.0000   0.3664
   8.000   2.0850   0.03351   0.02557  -0.2705  0.3690  1.0000  -2.8768   0.0000   0.3614
   8.500   2.1327   0.03444   0.02649  -0.2692  0.3640  1.0000  -2.9811   0.0000   0.3568
   9.000   2.1827   0.03599   0.02806  -0.2686  0.3589  1.0000  -3.0906   0.0000   0.3525
   9.500   2.2041   0.03748   0.02991  -0.2624  0.3533  1.0000  -3.1780   0.0000   0.3475
  10.000   2.2343   0.03869   0.03127  -0.2579  0.3476  1.0000  -3.2812   0.0000   0.3428
  10.500   2.2893   0.03946   0.03193  -0.2582  0.3421  1.0000  -3.4586   0.0000   0.3389
  11.000   2.2920   0.04165   0.03451  -0.2490  0.3367  1.0000  -3.5527   0.0000   0.3337
  11.500   2.2955   0.04352   0.03668  -0.2403  0.3305  1.0000  -3.6503   0.0000   0.3286
  12.000   2.3400   0.04393   0.03701  -0.2386  0.3244  1.0000  -3.8285   0.0000   0.3246
  12.500   2.3347   0.04691   0.04036  -0.2293  0.3184  1.0000  -3.9169   0.0000   0.3197
  13.000   2.3263   0.04981   0.04357  -0.2202  0.3115  1.0000  -4.0008   0.0000   0.3149
  13.500   2.3776   0.04969   0.04328  -0.2196  0.3044  1.0000  -4.2038   0.0000   0.3113
  14.000   2.3248   0.05596   0.05018  -0.2067  0.2977  1.0000  -4.1995   0.0000   0.3066
  14.500   2.3335   0.05845   0.05279  -0.2018  0.2904  1.0000  -4.3249   0.0000   0.3028
  15.000   2.3123   0.06423   0.05889  -0.1956  0.2830  1.0000  -4.3831   0.0000   0.2995
  15.500   2.2956   0.07017   0.06508  -0.1912  0.2748  1.0000  -4.4483   0.0000   0.2967
  16.000   2.2709   0.07806   0.07325  -0.1880  0.2666  1.0000  -4.4901   0.0000   0.2947
  17.000   2.1880   0.10140   0.09719  -0.1879  0.2466  1.0000  -4.4716   0.0000   0.2946


