xflr5 v6.10.03

 Calculated polar for: S1223 MOD2015 FLAP

 1 1 Reynolds number fixed          Mach number fixed         

 xtrf =   0.500 (top)        0.500 (bottom)
 Mach =   0.080     Re =     0.640 e 6     Ncrit =   9.000

  alpha     CL        CD       CDp       Cm    Top Xtr Bot Xtr   Cpmin    Chinge    XCp    
 ------- -------- --------- --------- -------- ------- ------- -------- --------- ---------
  -5.000   0.9537   0.05204   0.04671  -0.2525  0.4686  0.0261  -1.8268   0.0094   0.5188
  -4.000   1.2240   0.06098   0.05513  -0.2821  0.4282  0.0297  -1.5843   0.0115   0.4817
  -3.000   1.4918   0.07248   0.06657  -0.3096  0.4022  0.2089  -1.8485   0.0135   0.4563
  -2.000   1.6043   0.07490   0.06887  -0.3094  0.3879  0.2664  -1.9898   0.0137   0.4393
  -1.000   1.7063   0.07653   0.07043  -0.3073  0.3778  0.2922  -2.1273   0.0138   0.4243
   0.000   1.8047   0.07826   0.07210  -0.3046  0.3677  0.3140  -2.2723   0.0140   0.4108
   1.000   1.9018   0.07974   0.07363  -0.3017  0.3592  0.3442  -2.4187   0.0142   0.3984
   2.000   1.9934   0.08133   0.07529  -0.2981  0.3518  0.3801  -2.5619   0.0143   0.3871
   3.000   2.0834   0.08238   0.07634  -0.2943  0.3422  0.4221  -2.7150   0.0144   0.3766
   4.000   2.1631   0.08417   0.07836  -0.2891  0.3361  0.4634  -2.8704   0.0145   0.3666
   5.000   2.2370   0.08595   0.08026  -0.2833  0.3277  0.5000  -3.0385   0.0146   0.3572
   6.000   2.3100   0.08778   0.08224  -0.2775  0.3191  0.5000  -3.2272   0.0147   0.3483
   7.000   2.3659   0.09100   0.08566  -0.2697  0.3100  0.5000  -3.4199   0.0149   0.3396
   8.000   2.4187   0.09414   0.08899  -0.2619  0.2995  0.5000  -3.6841   0.0150   0.3312
   9.000   2.4553   0.09894   0.09394  -0.2527  0.2852  0.5000  -3.9544   0.0152   0.3231
  10.000   2.4918   0.10366   0.09898  -0.2444  0.2731  0.5000  -4.2378   0.0153   0.3153
  11.000   2.5177   0.10937   0.10495  -0.2361  0.2578  0.5000  -4.5152   0.0155   0.3080
  12.000   2.5244   0.11723   0.11304  -0.2279  0.2392  0.5000  -4.7566   0.0157   0.3013
  13.000   2.5084   0.12780   0.12383  -0.2213  0.2144  0.5000  -4.9417   0.0161   0.2957
  14.000   2.4572   0.14296   0.13918  -0.2186  0.1846  0.5000  -5.0260   0.0165   0.2926
  15.000   2.3859   0.16123   0.15767  -0.2220  0.1582  0.5000  -5.0376   0.0171   0.2926
  16.000   2.3226   0.17878   0.17541  -0.2290  0.1348  0.5000  -5.0452   0.0177   0.2939
  17.000   2.2706   0.19484   0.19162  -0.2375  0.1145  0.5000  -5.0732   0.0182   0.2957


