xflr5 v6.10.03

 Calculated polar for: S1223 MOD2015 FLAP

 1 1 Reynolds number fixed          Mach number fixed         

 xtrf =   0.500 (top)        0.500 (bottom)
 Mach =   0.080     Re =     0.780 e 6     Ncrit =   9.000

  alpha     CL        CD       CDp       Cm    Top Xtr Bot Xtr   Cpmin    Chinge    XCp    
 ------- -------- --------- --------- -------- ------- ------- -------- --------- ---------
  -5.000   0.9716   0.05262   0.04739  -0.2557  0.4538  0.0239  -1.8290   0.0096   0.5172
  -4.000   1.2496   0.06204   0.05636  -0.2867  0.4170  0.0271  -1.6066   0.0118   0.4806
  -3.000   1.5014   0.07276   0.06704  -0.3113  0.3926  0.1956  -1.8596   0.0136   0.4560
  -2.000   1.6148   0.07523   0.06944  -0.3112  0.3792  0.2584  -2.0019   0.0138   0.4392
  -1.000   1.7156   0.07696   0.07109  -0.3089  0.3690  0.2857  -2.1393   0.0140   0.4243
   0.000   1.8136   0.07857   0.07266  -0.3062  0.3597  0.3065  -2.2837   0.0141   0.4108
   1.000   1.9082   0.08016   0.07429  -0.3030  0.3519  0.3349  -2.4294   0.0143   0.3985
   2.000   2.0003   0.08160   0.07570  -0.2994  0.3424  0.3705  -2.5727   0.0144   0.3872
   3.000   2.0873   0.08321   0.07749  -0.2952  0.3369  0.4111  -2.7230   0.0145   0.3767
   4.000   2.1683   0.08484   0.07922  -0.2902  0.3293  0.4520  -2.8803   0.0146   0.3668
   5.000   2.2448   0.08635   0.08084  -0.2847  0.3207  0.4938  -3.0506   0.0147   0.3574
   6.000   2.3135   0.08863   0.08331  -0.2783  0.3129  0.5000  -3.2353   0.0148   0.3484
   7.000   2.3719   0.09141   0.08617  -0.2708  0.3027  0.5000  -3.4314   0.0149   0.3397
   8.000   2.4283   0.09436   0.08935  -0.2634  0.2925  0.5000  -3.7044   0.0150   0.3314
   9.000   2.4721   0.09834   0.09353  -0.2549  0.2793  0.5000  -3.9899   0.0152   0.3232
  10.000   2.5075   0.10301   0.09838  -0.2462  0.2660  0.5000  -4.2726   0.0153   0.3155
  11.000   2.5345   0.10851   0.10408  -0.2378  0.2485  0.5000  -4.5563   0.0155   0.3081
  12.000   2.5337   0.11713   0.11282  -0.2289  0.2213  0.5000  -4.7835   0.0157   0.3014
  13.000   2.4993   0.12983   0.12563  -0.2219  0.1879  0.5000  -4.9257   0.0161   0.2962
  15.000   2.3822   0.16265   0.15890  -0.2233  0.1378  0.5000  -5.0311   0.0172   0.2932
  16.000   2.3181   0.18041   0.17689  -0.2305  0.1190  0.5000  -5.0354   0.0177   0.2947
  17.000   2.2743   0.19527   0.19193  -0.2382  0.1022  0.5000  -5.0907   0.0182   0.2958


