xflr5 v6.10.03

 Calculated polar for: S1223 MOD2015 FLAP

 1 1 Reynolds number fixed          Mach number fixed         

 xtrf =   0.500 (top)        0.500 (bottom)
 Mach =   0.080     Re =     0.600 e 6     Ncrit =   9.000

  alpha     CL        CD       CDp       Cm    Top Xtr Bot Xtr   Cpmin    Chinge    XCp    
 ------- -------- --------- --------- -------- ------- ------- -------- --------- ---------
  -5.000   0.9468   0.05179   0.04640  -0.2513  0.4731  0.0269  -1.8392   0.0093   0.5195
  -4.000   1.2115   0.06033   0.05448  -0.2799  0.4338  0.0306  -1.5739   0.0114   0.4822
  -3.000   1.4898   0.07240   0.06640  -0.3093  0.4045  0.2162  -1.8458   0.0135   0.4563
  -2.000   1.6016   0.07472   0.06863  -0.3089  0.3916  0.2686  -1.9862   0.0136   0.4393
  -1.000   1.7042   0.07636   0.07018  -0.3069  0.3804  0.2962  -2.1242   0.0138   0.4243
   0.000   1.8030   0.07808   0.07187  -0.3042  0.3709  0.3175  -2.2693   0.0140   0.4107
   1.000   1.9006   0.07941   0.07318  -0.3014  0.3613  0.3475  -2.4160   0.0141   0.3984
   2.000   1.9924   0.08105   0.07494  -0.2979  0.3543  0.3838  -2.5590   0.0143   0.3871
   3.000   2.0796   0.08248   0.07640  -0.2937  0.3459  0.4252  -2.7102   0.0144   0.3765
   4.000   2.1626   0.08378   0.07788  -0.2890  0.3383  0.4676  -2.8686   0.0145   0.3666
   5.000   2.2363   0.08564   0.07992  -0.2831  0.3302  0.5000  -3.0363   0.0146   0.3572
   6.000   2.3106   0.08728   0.08164  -0.2775  0.3209  0.5000  -3.2267   0.0147   0.3483
   7.000   2.3663   0.09054   0.08516  -0.2697  0.3121  0.5000  -3.4191   0.0148   0.3396
   8.000   2.4174   0.09380   0.08857  -0.2616  0.3014  0.5000  -3.6805   0.0150   0.3312
   9.000   2.4527   0.09885   0.09384  -0.2524  0.2881  0.5000  -3.9482   0.0152   0.3230
  10.000   2.4878   0.10368   0.09899  -0.2439  0.2755  0.5000  -4.2283   0.0153   0.3153
  11.000   2.5124   0.10955   0.10513  -0.2355  0.2607  0.5000  -4.5019   0.0155   0.3080
  12.000   2.5199   0.11738   0.11321  -0.2275  0.2424  0.5000  -4.7443   0.0157   0.3013
  13.000   2.5020   0.12822   0.12427  -0.2209  0.2203  0.5000  -4.9241   0.0161   0.2958
  14.000   2.4601   0.14218   0.13846  -0.2181  0.1922  0.5000  -5.0317   0.0165   0.2924
  15.000   2.3942   0.15968   0.15619  -0.2210  0.1654  0.5000  -5.0603   0.0170   0.2919
  16.000   2.3264   0.17783   0.17454  -0.2281  0.1417  0.5000  -5.0555   0.0176   0.2935
  17.000   2.2705   0.19445   0.19127  -0.2370  0.1195  0.5000  -5.0710   0.0182   0.2955


