xflr5 v6.10.03

 Calculated polar for: S1223 MOD2015

 1 1 Reynolds number fixed          Mach number fixed         

 xtrf =   0.500 (top)        0.500 (bottom)
 Mach =   0.000     Re =     0.620 e 6     Ncrit =   9.000

  alpha     CL        CD       CDp       Cm    Top Xtr Bot Xtr   Cpmin    Chinge    XCp    
 ------- -------- --------- --------- -------- ------- ------- -------- --------- ---------
  -5.000   0.3034   0.06418   0.05998  -0.1232  0.5000  0.0235  -1.7196   0.0000   0.6692
  -4.000   0.3140   0.04159   0.03752  -0.1405  0.4980  0.0198  -2.6203   0.0000   0.7083
  -3.000   0.8145   0.01416   0.00701  -0.2626  0.4466  0.0216  -2.1974   0.0000   0.5757
  -2.000   0.9506   0.01405   0.00657  -0.2674  0.4214  0.0230  -1.6103   0.0000   0.5321
  -1.000   1.0812   0.01415   0.00643  -0.2708  0.4040  0.0257  -1.5357   0.0000   0.4991
   0.000   1.2076   0.01441   0.00667  -0.2732  0.3904  0.0639  -1.6714   0.0000   0.4729
   1.000   1.3285   0.01502   0.00755  -0.2748  0.3783  0.2549  -1.8071   0.0000   0.4517
   2.000   1.4380   0.01567   0.00825  -0.2736  0.3701  0.2938  -1.9441   0.0000   0.4332
   3.000   1.5468   0.01673   0.00925  -0.2725  0.3599  0.3320  -2.0862   0.0000   0.4173
   4.000   1.6531   0.01747   0.01016  -0.2710  0.3538  0.3843  -2.2288   0.0000   0.4032
   6.000   1.8574   0.01979   0.01270  -0.2669  0.3388  0.5000  -2.5310   0.0000   0.3791
   7.000   1.9490   0.02098   0.01400  -0.2628  0.3318  0.5000  -2.6937   0.0000   0.3682
   8.000   2.0399   0.02269   0.01570  -0.2591  0.3223  0.5000  -2.8721   0.0000   0.3583
   9.000   2.1196   0.02412   0.01740  -0.2532  0.3156  0.5000  -3.0640   0.0000   0.3486
  10.000   2.1946   0.02614   0.01952  -0.2471  0.3061  0.5000  -3.2766   0.0000   0.3395
  11.000   2.2641   0.02822   0.02188  -0.2403  0.2967  0.5000  -3.5531   0.0000   0.3308
  12.000   2.3236   0.03099   0.02486  -0.2326  0.2836  0.5000  -3.8486   0.0000   0.3223
  13.000   2.3752   0.03460   0.02866  -0.2246  0.2702  0.5000  -4.1469   0.0000   0.3143
  14.000   2.4187   0.03920   0.03352  -0.2167  0.2547  0.5000  -4.4472   0.0000   0.3068
  15.000   2.4489   0.04545   0.04005  -0.2087  0.2361  0.5000  -4.7286   0.0000   0.2997
  16.000   2.4482   0.05571   0.05055  -0.2005  0.2132  0.5000  -4.9429   0.0000   0.2936
  17.000   2.3993   0.07389   0.06901  -0.1948  0.1862  0.5000  -5.0410   0.0000   0.2898


