xflr5 v6.10.03

 Calculated polar for: S1223 MOD2015 FLAP

 1 1 Reynolds number fixed          Mach number fixed         

 xtrf =   0.500 (top)        0.500 (bottom)
 Mach =   0.000     Re =     0.280 e 6     Ncrit =   9.000

  alpha     CL        CD       CDp       Cm    Top Xtr Bot Xtr   Cpmin    Chinge    XCp    
 ------- -------- --------- --------- -------- ------- ------- -------- --------- ---------
  -5.000   0.2580   0.08106   0.07696  -0.0679  0.5000  0.0474  -1.0547  -0.0002   0.5146
  -4.000   0.3153   0.07130   0.06724  -0.0762  0.5000  0.0537  -1.0306   0.0004   0.4905
  -3.000   0.4271   0.06105   0.05695  -0.0912  0.5000  0.0635  -1.0886   0.0013   0.4609
  -1.000   1.6708   0.06868   0.06155  -0.3005  0.4247  0.3379  -2.0690   0.0126   0.4244
   0.000   1.7831   0.07072   0.06359  -0.3001  0.4126  0.3628  -2.2221   0.0129   0.4107
   1.000   1.8939   0.07146   0.06428  -0.2994  0.4017  0.3941  -2.3764   0.0130   0.3983
   2.000   1.9876   0.07300   0.06596  -0.2962  0.3914  0.4322  -2.5194   0.0132   0.3871
   3.000   2.0896   0.07273   0.06570  -0.2942  0.3822  0.4741  -2.6851   0.0132   0.3768
   4.000   2.1673   0.07519   0.06846  -0.2889  0.3727  0.5000  -2.8381   0.0135   0.3669
   5.000   2.2779   0.07595   0.06915  -0.2888  0.3623  0.5000  -3.0486   0.0136   0.3582
   6.000   2.3283   0.07965   0.07330  -0.2800  0.3527  0.5000  -3.2117   0.0139   0.3491
   7.000   2.4094   0.08042   0.07409  -0.2757  0.3420  0.5000  -3.4436   0.0140   0.3409
   8.000   2.4333   0.08566   0.07987  -0.2640  0.3312  0.5000  -3.6702   0.0143   0.3322
   9.000   2.4709   0.08954   0.08400  -0.2549  0.3193  0.5000  -3.9388   0.0145   0.3240
  10.000   2.4859   0.09547   0.09023  -0.2438  0.3057  0.5000  -4.1794   0.0148   0.3160
  11.000   2.4756   0.10455   0.09983  -0.2320  0.2913  0.5000  -4.3735   0.0152   0.3084
  12.000   2.4667   0.11410   0.10984  -0.2230  0.2766  0.5000  -4.5728   0.0155   0.3017
  13.000   2.4449   0.12579   0.12198  -0.2165  0.2599  0.5000  -4.7360   0.0159   0.2963
  14.000   2.4090   0.13968   0.13625  -0.2137  0.2398  0.5000  -4.8527   0.0163   0.2927
  15.000   2.3633   0.15494   0.15180  -0.2154  0.2171  0.5000  -4.9304   0.0168   0.2911
  16.000   2.3103   0.17129   0.16840  -0.2212  0.1918  0.5000  -4.9688   0.0173   0.2915
  17.000   2.2638   0.18659   0.18388  -0.2289  0.1668  0.5000  -5.0096   0.0178   0.2926


