XFLR5 v6.09.06

 Calculated polar for: S1223 MOD2015

 1 1 Reynolds number fixed          Mach number fixed         

 xtrf =   1.000 (top)        1.000 (bottom)
 Mach =   0.080     Re =     0.400 e 6     Ncrit =   9.000

  alpha     CL        CD       CDp       Cm    Top Xtr Bot Xtr   Cpmin    Chinge    XCp    
 ------- -------- --------- --------- -------- ------- ------- -------- --------- ---------
 -10.000   0.0249   0.12882   0.12618  -0.0739  0.9623  0.0199  -1.2419   0.0000   3.5077
  -9.000   0.0875   0.11496   0.11235  -0.0847  0.9499  0.0205  -1.2533   0.0000   1.2955
  -8.500   0.1180   0.10901   0.10642  -0.0885  0.9408  0.0211  -1.1911   0.0000   1.0549
  -8.000   0.1455   0.10295   0.10038  -0.0923  0.9294  0.0221  -1.1866   0.0000   0.9260
  -7.500   0.1538   0.09598   0.09343  -0.0976  0.9127  0.0236  -1.5213   0.0000   0.9225
  -6.500   0.2415   0.08308   0.08044  -0.1079  0.8552  0.0263  -1.2718   0.0000   0.7176
  -6.000   0.3605   0.07187   0.06822  -0.1367  0.7049  0.0294  -1.2202   0.0000   0.6437
  -5.500   0.3296   0.06846   0.06443  -0.1320  0.6228  0.0317  -1.5090   0.0000   0.6645
  -5.000   0.3389   0.06723   0.06291  -0.1257  0.5680  0.0325  -1.3075   0.0000   0.6323
  -4.500   0.3351   0.06519   0.06078  -0.1203  0.5399  0.0339  -1.2640   0.0000   0.6187
  -4.000   0.3288   0.05863   0.05422  -0.1228  0.5235  0.0365  -1.5008   0.0000   0.6321
  -3.500   0.3482   0.05634   0.05184  -0.1205  0.5037  0.0375  -1.3326   0.0000   0.6022
  -3.000   0.4572   0.03428   0.02957  -0.1663  0.4912  0.0347  -1.9478   0.0000   0.6184
  -2.500   0.8563   0.01587   0.00808  -0.2595  0.4606  0.0281  -1.8887   0.0000   0.5551
  -2.000   0.9276   0.01574   0.00784  -0.2625  0.4481  0.0302  -1.5830   0.0000   0.5339
  -1.500   0.9975   0.01580   0.00771  -0.2652  0.4368  0.0315  -1.4526   0.0000   0.5157
  -1.000   1.0668   0.01583   0.00762  -0.2678  0.4273  0.0341  -1.5232   0.0000   0.4997
  -0.500   1.1336   0.01612   0.00773  -0.2697  0.4187  0.0408  -1.5922   0.0000   0.4856
   0.000   1.2094   0.01602   0.00805  -0.2739  0.4117  0.2097  -1.6686   0.0000   0.4732
   0.500   1.2637   0.01651   0.00850  -0.2731  0.4049  0.2594  -1.7309   0.0000   0.4619
   1.000   1.3224   0.01710   0.00901  -0.2733  0.3986  0.2840  -1.7995   0.0000   0.4516
   1.500   1.3777   0.01747   0.00939  -0.2728  0.3941  0.3030  -1.8660   0.0000   0.4419
   2.000   1.4331   0.01790   0.00980  -0.2723  0.3892  0.3214  -1.9366   0.0000   0.4330
   2.500   1.4902   0.01835   0.01023  -0.2722  0.3841  0.3385  -2.0097   0.0000   0.4248
   3.000   1.5527   0.01900   0.01083  -0.2734  0.3788  0.3607  -2.0866   0.0000   0.4173
   3.500   1.6068   0.01942   0.01136  -0.2727  0.3754  0.3866  -2.1575   0.0000   0.4100
   4.000   1.6607   0.01989   0.01195  -0.2721  0.3709  0.4200  -2.2290   0.0000   0.4032
   4.500   1.7151   0.02044   0.01258  -0.2716  0.3669  0.4647  -2.3034   0.0000   0.3968
   5.000   1.7734   0.02112   0.01332  -0.2720  0.3627  0.5230  -2.3863   0.0000   0.3908
   5.500   1.8333   0.02187   0.01426  -0.2728  0.3585  0.6046  -2.4725   0.0000   0.3853
   6.000   1.8835   0.02242   0.01514  -0.2715  0.3547  0.7325  -2.5536   0.0000   0.3796
   7.000   1.9655   0.02347   0.01642  -0.2653  0.3467  1.0000  -2.7087   0.0000   0.3684
   7.500   2.0219   0.02448   0.01733  -0.2656  0.3415  1.0000  -2.8096   0.0000   0.3637
   8.000   2.0608   0.02531   0.01830  -0.2623  0.3381  1.0000  -2.8948   0.0000   0.3586
   8.500   2.0988   0.02617   0.01929  -0.2589  0.3337  1.0000  -2.9886   0.0000   0.3536
   9.000   2.1373   0.02707   0.02026  -0.2557  0.3293  1.0000  -3.0841   0.0000   0.3488
   9.500   2.1798   0.02811   0.02127  -0.2534  0.3242  1.0000  -3.1931   0.0000   0.3443
  10.000   2.2147   0.02931   0.02264  -0.2498  0.3197  1.0000  -3.3035   0.0000   0.3398
  10.500   2.2432   0.03053   0.02405  -0.2451  0.3149  1.0000  -3.4236   0.0000   0.3351
  11.000   2.2706   0.03179   0.02539  -0.2404  0.3095  1.0000  -3.5635   0.0000   0.3305
  11.500   2.3044   0.03328   0.02691  -0.2370  0.3037  1.0000  -3.7154   0.0000   0.3263
  12.000   2.3208   0.03508   0.02899  -0.2310  0.2982  1.0000  -3.8423   0.0000   0.3218
  12.500   2.3380   0.03698   0.03103  -0.2255  0.2915  1.0000  -3.9765   0.0000   0.3175
  13.000   2.3561   0.03928   0.03346  -0.2206  0.2848  1.0000  -4.1125   0.0000   0.3134
  13.500   2.3707   0.04186   0.03627  -0.2156  0.2776  1.0000  -4.2423   0.0000   0.3094
  14.000   2.3839   0.04491   0.03937  -0.2110  0.2707  1.0000  -4.3774   0.0000   0.3057
  14.500   2.3943   0.04838   0.04315  -0.2067  0.2630  1.0000  -4.5066   0.0000   0.3022
  15.000   2.3969   0.05287   0.04773  -0.2024  0.2545  1.0000  -4.6198   0.0000   0.2989
  15.500   2.3975   0.05799   0.05311  -0.1988  0.2447  1.0000  -4.7272   0.0000   0.2959
  16.000   2.3888   0.06461   0.05991  -0.1956  0.2348  1.0000  -4.8121   0.0000   0.2934
  16.500   2.3664   0.07352   0.06895  -0.1933  0.2241  1.0000  -4.8624   0.0000   0.2917
  17.000   2.3396   0.08385   0.07953  -0.1925  0.2128  1.0000  -4.8967   0.0000   0.2907


