xflr5 v6.10.03

 Calculated polar for: S1223 MOD2015

 1 1 Reynolds number fixed          Mach number fixed         

 xtrf =   0.500 (top)        0.500 (bottom)
 Mach =   0.080     Re =     0.680 e 6     Ncrit =   9.000

  alpha     CL        CD       CDp       Cm    Top Xtr Bot Xtr   Cpmin    Chinge    XCp    
 ------- -------- --------- --------- -------- ------- ------- -------- --------- ---------
  -5.000   0.3293   0.06522   0.06108  -0.1248  0.5000  0.0212  -1.4865   0.0000   0.6410
  -4.000   0.3249   0.03783   0.03377  -0.1489  0.4890  0.0181  -2.8101   0.0000   0.7191
  -3.000   0.8204   0.01394   0.00686  -0.2641  0.4392  0.0205  -2.2197   0.0000   0.5752
  -2.000   0.9593   0.01373   0.00638  -0.2693  0.4160  0.0218  -1.6253   0.0000   0.5315
  -1.000   1.0871   0.01395   0.00634  -0.2719  0.3981  0.0242  -1.5461   0.0000   0.4988
   0.000   1.2107   0.01425   0.00654  -0.2735  0.3851  0.0365  -1.6812   0.0000   0.4726
   1.000   1.3376   0.01463   0.00734  -0.2763  0.3746  0.2467  -1.8220   0.0000   0.4514
   2.000   1.4458   0.01540   0.00808  -0.2748  0.3653  0.2878  -1.9589   0.0000   0.4330
   3.000   1.5541   0.01630   0.00901  -0.2734  0.3572  0.3257  -2.1018   0.0000   0.4170
   4.000   1.6610   0.01711   0.00994  -0.2718  0.3500  0.3771  -2.2462   0.0000   0.4029
   5.000   1.7662   0.01841   0.01132  -0.2702  0.3412  0.4580  -2.3924   0.0000   0.3903
   6.000   1.8643   0.01939   0.01249  -0.2671  0.3355  0.5000  -2.5488   0.0000   0.3787
   7.000   1.9566   0.02067   0.01381  -0.2631  0.3280  0.5000  -2.7133   0.0000   0.3678
   8.000   2.0457   0.02227   0.01550  -0.2587  0.3200  0.5000  -2.8908   0.0000   0.3577
   9.000   2.1278   0.02377   0.01718  -0.2532  0.3121  0.5000  -3.0867   0.0000   0.3481
  10.000   2.2043   0.02587   0.01940  -0.2472  0.3028  0.5000  -3.3019   0.0000   0.3390
  11.000   2.2749   0.02791   0.02168  -0.2404  0.2929  0.5000  -3.5822   0.0000   0.3302
  12.000   2.3385   0.03057   0.02456  -0.2332  0.2793  0.5000  -3.8880   0.0000   0.3219
  13.000   2.3936   0.03409   0.02830  -0.2255  0.2660  0.5000  -4.1961   0.0000   0.3139
  14.000   2.4376   0.03875   0.03319  -0.2174  0.2493  0.5000  -4.5022   0.0000   0.3063
  15.000   2.4625   0.04562   0.04027  -0.2088  0.2290  0.5000  -4.7760   0.0000   0.2992
  16.000   2.4530   0.05707   0.05193  -0.2002  0.2030  0.5000  -4.9733   0.0000   0.2932
  17.000   2.3889   0.07784   0.07299  -0.1952  0.1754  0.5000  -5.0330   0.0000   0.2902


