xflr5 v6.10.03

 Calculated polar for: S1223 MOD2015 FLAP

 1 1 Reynolds number fixed          Mach number fixed         

 xtrf =   0.500 (top)        0.500 (bottom)
 Mach =   0.000     Re =     0.920 e 6     Ncrit =   9.000

  alpha     CL        CD       CDp       Cm    Top Xtr Bot Xtr   Cpmin    Chinge    XCp    
 ------- -------- --------- --------- -------- ------- ------- -------- --------- ---------
  -5.000   1.0225   0.05452   0.04937  -0.2651  0.4423  0.0227  -1.7222   0.0102   0.5132
  -4.000   1.2769   0.06328   0.05765  -0.2916  0.4066  0.0252  -1.6248   0.0121   0.4795
  -3.000   1.5036   0.07259   0.06693  -0.3118  0.3835  0.1802  -1.8574   0.0136   0.4561
  -2.000   1.6184   0.07508   0.06944  -0.3121  0.3734  0.2516  -2.0013   0.0139   0.4393
  -1.000   1.7186   0.07683   0.07109  -0.3098  0.3618  0.2794  -2.1369   0.0140   0.4245
   0.000   1.8161   0.07836   0.07265  -0.3071  0.3549  0.3003  -2.2814   0.0142   0.4111
   1.000   1.9091   0.07999   0.07423  -0.3038  0.3453  0.3292  -2.4249   0.0143   0.3989
   2.000   2.0001   0.08141   0.07573  -0.3002  0.3394  0.3634  -2.5674   0.0144   0.3877
   3.000   2.0869   0.08290   0.07732  -0.2962  0.3324  0.4034  -2.7160   0.0145   0.3772
   4.000   2.1679   0.08440   0.07884  -0.2913  0.3225  0.4445  -2.8715   0.0146   0.3673
   5.000   2.2451   0.08598   0.08064  -0.2860  0.3170  0.4868  -3.0427   0.0147   0.3580
   6.000   2.3121   0.08824   0.08299  -0.2795  0.3080  0.5000  -3.2248   0.0148   0.3490
   7.000   2.3745   0.09060   0.08552  -0.2726  0.2994  0.5000  -3.4262   0.0149   0.3404
   8.000   2.4288   0.09351   0.08850  -0.2650  0.2856  0.5000  -3.6981   0.0150   0.3321
   9.000   2.4801   0.09660   0.09181  -0.2574  0.2745  0.5000  -3.9966   0.0151   0.3240
  10.000   2.5185   0.10080   0.09619  -0.2488  0.2601  0.5000  -4.2840   0.0152   0.3162
  11.000   2.5387   0.10682   0.10225  -0.2395  0.2343  0.5000  -4.5554   0.0154   0.3087
  12.000   2.5317   0.11591   0.11138  -0.2300  0.1998  0.5000  -4.7682   0.0157   0.3020
  13.000   2.4992   0.12827   0.12385  -0.2226  0.1692  0.5000  -4.9138   0.0161   0.2966
  14.000   2.4482   0.14336   0.13914  -0.2199  0.1455  0.5000  -4.9964   0.0165   0.2935
  15.000   2.3926   0.15947   0.15554  -0.2222  0.1264  0.5000  -5.0525   0.0170   0.2926
  16.000   2.3304   0.17683   0.17312  -0.2286  0.1085  0.5000  -5.0703   0.0176   0.2936
  17.000   2.2787   0.19281   0.18927  -0.2366  0.0917  0.5000  -5.1016   0.0181   0.2952


