xflr5 v6.10.03

 Calculated polar for: S1223 MOD2015 FLAP

 1 1 Reynolds number fixed          Mach number fixed         

 xtrf =   0.500 (top)        0.500 (bottom)
 Mach =   0.000     Re =     0.740 e 6     Ncrit =   9.000

  alpha     CL        CD       CDp       Cm    Top Xtr Bot Xtr   Cpmin    Chinge    XCp    
 ------- -------- --------- --------- -------- ------- ------- -------- --------- ---------
  -5.000   0.9713   0.05262   0.04736  -0.2555  0.4594  0.0244  -1.8071   0.0096   0.5171
  -4.000   1.2384   0.06155   0.05582  -0.2847  0.4215  0.0277  -1.5923   0.0117   0.4811
  -3.000   1.4949   0.07249   0.06673  -0.3103  0.3965  0.2008  -1.8476   0.0135   0.4563
  -2.000   1.6074   0.07495   0.06907  -0.3102  0.3817  0.2611  -1.9883   0.0138   0.4394
  -1.000   1.7082   0.07662   0.07071  -0.3080  0.3724  0.2880  -2.1249   0.0139   0.4245
   0.000   1.8056   0.07821   0.07221  -0.3053  0.3616  0.3091  -2.2678   0.0141   0.4111
   1.000   1.9000   0.07979   0.07384  -0.3022  0.3546  0.3370  -2.4122   0.0142   0.3988
   2.000   1.9908   0.08138   0.07547  -0.2986  0.3464  0.3738  -2.5543   0.0143   0.3875
   3.000   2.0784   0.08274   0.07694  -0.2946  0.3392  0.4147  -2.7034   0.0144   0.3770
   4.000   2.1594   0.08431   0.07864  -0.2897  0.3319  0.4557  -2.8595   0.0145   0.3672
   5.000   2.2357   0.08566   0.08005  -0.2843  0.3222  0.4974  -3.0285   0.0146   0.3578
   6.000   2.3053   0.08785   0.08245  -0.2782  0.3153  0.5000  -3.2130   0.0147   0.3489
   7.000   2.3621   0.09075   0.08543  -0.2706  0.3050  0.5000  -3.4060   0.0149   0.3402
   8.000   2.4183   0.09361   0.08856  -0.2633  0.2954  0.5000  -3.6766   0.0150   0.3319
   9.000   2.4603   0.09771   0.09282  -0.2548  0.2822  0.5000  -3.9563   0.0151   0.3238
  10.000   2.4940   0.10250   0.09778  -0.2460  0.2686  0.5000  -4.2327   0.0152   0.3160
  11.000   2.5224   0.10777   0.10328  -0.2378  0.2525  0.5000  -4.5158   0.0154   0.3086
  12.000   2.5328   0.11500   0.11070  -0.2295  0.2290  0.5000  -4.7649   0.0156   0.3018
  13.000   2.5055   0.12673   0.12254  -0.2220  0.1961  0.5000  -4.9239   0.0160   0.2963
  14.000   2.4505   0.14229   0.13825  -0.2190  0.1660  0.5000  -4.9981   0.0165   0.2931
  15.000   2.3844   0.15984   0.15606  -0.2219  0.1433  0.5000  -5.0247   0.0170   0.2927
  16.000   2.3276   0.17643   0.17289  -0.2279  0.1242  0.5000  -5.0561   0.0175   0.2935
  17.000   2.2749   0.19254   0.18915  -0.2361  0.1064  0.5000  -5.0837   0.0181   0.2951


