XFLR5 v6.09.06

 Calculated polar for: S1223 MOD2015

 1 1 Reynolds number fixed          Mach number fixed         

 xtrf =   1.000 (top)        1.000 (bottom)
 Mach =   0.080     Re =     0.300 e 6     Ncrit =   9.000

  alpha     CL        CD       CDp       Cm    Top Xtr Bot Xtr   Cpmin    Chinge    XCp    
 ------- -------- --------- --------- -------- ------- ------- -------- --------- ---------
 -10.000  -0.0197   0.13494   0.13200  -0.0630  0.9683  0.0235  -1.2777   0.0000  -3.3041
  -9.500   0.0131   0.12764   0.12472  -0.0685  0.9617  0.0238  -1.2648   0.0000   5.9794
  -9.000   0.0564   0.12069   0.11777  -0.0754  0.9572  0.0246  -1.1666   0.0000   1.7048
  -8.500   0.0878   0.11415   0.11126  -0.0805  0.9480  0.0259  -1.1564   0.0000   1.2379
  -7.500   0.1445   0.10076   0.09792  -0.0898  0.9242  0.0283  -1.2328   0.0000   0.9108
  -7.000   0.1727   0.09480   0.09199  -0.0933  0.9079  0.0304  -1.2195   0.0000   0.8203
  -6.500   0.1787   0.08909   0.08630  -0.0946  0.8781  0.0319  -1.3727   0.0000   0.8060
  -6.000   0.2417   0.08155   0.07863  -0.1042  0.8402  0.0347  -1.2247   0.0000   0.6997
  -5.500   0.3582   0.07010   0.06631  -0.1346  0.7159  0.0408  -1.2266   0.0000   0.6387
  -5.000   0.3385   0.06760   0.06335  -0.1287  0.6248  0.0417  -1.3290   0.0000   0.6418
  -4.500   0.3444   0.06581   0.06127  -0.1227  0.5759  0.0428  -1.2046   0.0000   0.6157
  -3.500   0.6779   0.01896   0.01159  -0.2449  0.5221  0.0315  -2.5444   0.0000   0.6162
  -3.000   0.7651   0.01767   0.00987  -0.2520  0.5000  0.0324  -2.2150   0.0000   0.5828
  -2.500   0.8410   0.01733   0.00924  -0.2562  0.4826  0.0342  -1.8679   0.0000   0.5567
  -2.000   0.9138   0.01711   0.00884  -0.2595  0.4687  0.0363  -1.5421   0.0000   0.5349
  -1.500   0.9916   0.01703   0.00863  -0.2640  0.4564  0.0384  -1.4429   0.0000   0.5161
  -1.000   1.0633   0.01713   0.00853  -0.2671  0.4455  0.0422  -1.5144   0.0000   0.4999
  -0.500   1.1506   0.01702   0.00861  -0.2738  0.4363  0.1523  -1.5967   0.0000   0.4857
   0.000   1.2081   0.01749   0.00915  -0.2737  0.4287  0.2508  -1.6595   0.0000   0.4734
   0.500   1.2680   0.01817   0.00967  -0.2741  0.4211  0.2828  -1.7267   0.0000   0.4620
   1.000   1.3254   0.01864   0.01013  -0.2740  0.4152  0.3050  -1.7934   0.0000   0.4516
   1.500   1.3824   0.01910   0.01060  -0.2738  0.4095  0.3282  -1.8613   0.0000   0.4421
   2.000   1.4428   0.01959   0.01097  -0.2744  0.4042  0.3433  -1.9356   0.0000   0.4333
   2.500   1.5103   0.02029   0.01158  -0.2766  0.3985  0.3633  -2.0156   0.0000   0.4253
   3.000   1.5650   0.02070   0.01211  -0.2760  0.3940  0.3859  -2.0856   0.0000   0.4177
   3.500   1.6226   0.02121   0.01273  -0.2762  0.3893  0.4147  -2.1586   0.0000   0.4106
   4.000   1.6800   0.02179   0.01335  -0.2763  0.3845  0.4539  -2.2332   0.0000   0.4039
   4.500   1.7515   0.02277   0.01432  -0.2796  0.3792  0.5099  -2.3238   0.0000   0.3981
   5.000   1.8027   0.02333   0.01517  -0.2784  0.3759  0.5764  -2.4010   0.0000   0.3920
   5.500   1.8550   0.02395   0.01609  -0.2776  0.3714  0.6799  -2.4802   0.0000   0.3861
   6.500   1.9454   0.02503   0.01738  -0.2730  0.3627  1.0000  -2.6392   0.0000   0.3748
   7.000   2.0005   0.02615   0.01851  -0.2730  0.3583  1.0000  -2.7336   0.0000   0.3700
   7.500   2.0374   0.02697   0.01948  -0.2692  0.3540  1.0000  -2.8136   0.0000   0.3646
   8.000   2.0778   0.02782   0.02042  -0.2662  0.3493  1.0000  -2.9031   0.0000   0.3595
   8.500   2.1224   0.02866   0.02124  -0.2641  0.3447  1.0000  -3.0051   0.0000   0.3548
   9.000   2.1718   0.02992   0.02254  -0.2632  0.3397  1.0000  -3.1120   0.0000   0.3504
   9.500   2.1963   0.03103   0.02390  -0.2573  0.3352  1.0000  -3.2029   0.0000   0.3453
  10.000   2.2260   0.03207   0.02507  -0.2526  0.3299  1.0000  -3.3071   0.0000   0.3405
  10.500   2.2646   0.03310   0.02611  -0.2496  0.3250  1.0000  -3.4491   0.0000   0.3362
  11.000   2.2917   0.03469   0.02788  -0.2449  0.3196  1.0000  -3.5875   0.0000   0.3316
  11.500   2.3056   0.03633   0.02978  -0.2379  0.3137  1.0000  -3.7054   0.0000   0.3268
  12.000   2.3300   0.03773   0.03126  -0.2330  0.3081  1.0000  -3.8475   0.0000   0.3224
  12.500   2.3478   0.03976   0.03346  -0.2274  0.3018  1.0000  -3.9822   0.0000   0.3180
  13.000   2.3512   0.04232   0.03630  -0.2202  0.2949  1.0000  -4.0905   0.0000   0.3135
  13.500   2.3678   0.04447   0.03848  -0.2152  0.2882  1.0000  -4.2259   0.0000   0.3095
  14.000   2.3643   0.04831   0.04269  -0.2086  0.2810  1.0000  -4.3244   0.0000   0.3055
  14.500   2.3693   0.05191   0.04645  -0.2037  0.2738  1.0000  -4.4424   0.0000   0.3019
  15.000   2.3675   0.05667   0.05146  -0.1992  0.2662  1.0000  -4.5441   0.0000   0.2987
  15.500   2.3622   0.06213   0.05711  -0.1953  0.2577  1.0000  -4.6375   0.0000   0.2958
  16.000   2.3474   0.06938   0.06465  -0.1923  0.2482  1.0000  -4.7058   0.0000   0.2935
  16.500   2.3294   0.07758   0.07298  -0.1903  0.2383  1.0000  -4.7648   0.0000   0.2918
  17.000   2.2972   0.08855   0.08421  -0.1900  0.2270  1.0000  -4.7831   0.0000   0.2912


