xflr5 v6.10.03

 Calculated polar for: S1223 MOD2015 FLAP

 1 1 Reynolds number fixed          Mach number fixed         

 xtrf =   0.500 (top)        0.500 (bottom)
 Mach =   0.000     Re =     0.400 e 6     Ncrit =   9.000

  alpha     CL        CD       CDp       Cm    Top Xtr Bot Xtr   Cpmin    Chinge    XCp    
 ------- -------- --------- --------- -------- ------- ------- -------- --------- ---------
  -5.000   0.9348   0.05127   0.04554  -0.2496  0.5000  0.0329  -1.8118   0.0091   0.5210
  -4.000   1.1430   0.05663   0.05053  -0.2673  0.4670  0.0376  -1.5115   0.0106   0.4851
  -3.000   1.4728   0.07072   0.06434  -0.3065  0.4307  0.2507  -1.8196   0.0131   0.4569
  -2.000   1.5753   0.07199   0.06548  -0.3044  0.4152  0.2915  -1.9489   0.0131   0.4398
  -1.000   1.6872   0.07321   0.06651  -0.3039  0.4020  0.3171  -2.0938   0.0133   0.4245
   0.000   1.7912   0.07499   0.06827  -0.3022  0.3913  0.3406  -2.2416   0.0135   0.4109
   1.000   1.8964   0.07571   0.06895  -0.3006  0.3813  0.3716  -2.3930   0.0136   0.3985
   2.000   1.9879   0.07735   0.07073  -0.2971  0.3725  0.4098  -2.5339   0.0138   0.3872
   3.000   2.0860   0.07747   0.07083  -0.2945  0.3631  0.4525  -2.6967   0.0138   0.3768
   4.000   2.1594   0.07931   0.07297  -0.2885  0.3554  0.4941  -2.8441   0.0140   0.3669
   5.000   2.2412   0.08126   0.07500  -0.2840  0.3463  0.5000  -3.0214   0.0142   0.3576
   6.000   2.3118   0.08325   0.07721  -0.2781  0.3373  0.5000  -3.2066   0.0143   0.3488
   7.000   2.3674   0.08617   0.08032  -0.2703  0.3274  0.5000  -3.4001   0.0145   0.3401
   8.000   2.4188   0.08920   0.08363  -0.2624  0.3170  0.5000  -3.6622   0.0147   0.3318
   9.000   2.4562   0.09343   0.08802  -0.2533  0.3047  0.5000  -3.9311   0.0148   0.3236
  10.000   2.4679   0.10068   0.09573  -0.2423  0.2915  0.5000  -4.1638   0.0151   0.3157
  11.000   2.4834   0.10747   0.10288  -0.2333  0.2780  0.5000  -4.4116   0.0154   0.3083
  12.000   2.4870   0.11579   0.11156  -0.2251  0.2627  0.5000  -4.6400   0.0156   0.3017
  13.000   2.4737   0.12631   0.12244  -0.2187  0.2438  0.5000  -4.8257   0.0160   0.2961
  14.000   2.4413   0.13924   0.13566  -0.2155  0.2224  0.5000  -4.9545   0.0163   0.2922
  15.000   2.3917   0.15463   0.15137  -0.2169  0.1985  0.5000  -5.0285   0.0168   0.2906
  16.000   2.3304   0.17179   0.16867  -0.2228  0.1733  0.5000  -5.0462   0.0173   0.2913
  17.000   2.2819   0.18720   0.18429  -0.2304  0.1501  0.5000  -5.0886   0.0178   0.2925


