xflr5 v6.10.03

 Calculated polar for: S1223 MOD2015 FLAP

 1 1 Reynolds number fixed          Mach number fixed         

 xtrf =   0.500 (top)        0.500 (bottom)
 Mach =   0.080     Re =     0.380 e 6     Ncrit =   9.000

  alpha     CL        CD       CDp       Cm    Top Xtr Bot Xtr   Cpmin    Chinge    XCp    
 ------- -------- --------- --------- -------- ------- ------- -------- --------- ---------
  -5.000   0.9304   0.05113   0.04537  -0.2491  0.5000  0.0338  -1.8264   0.0090   0.5218
  -4.000   1.1276   0.05574   0.04960  -0.2645  0.4700  0.0385  -1.5038   0.0104   0.4858
  -3.000   1.4735   0.07045   0.06405  -0.3064  0.4331  0.2523  -1.8245   0.0130   0.4567
  -2.000   1.5784   0.07164   0.06508  -0.3047  0.4174  0.2944  -1.9560   0.0131   0.4396
  -1.000   1.6917   0.07261   0.06583  -0.3042  0.4037  0.3196  -2.1032   0.0132   0.4242
   0.000   1.7966   0.07456   0.06781  -0.3025  0.3933  0.3430  -2.2520   0.0135   0.4105
   1.000   1.9049   0.07519   0.06832  -0.3013  0.3827  0.3746  -2.4072   0.0136   0.3982
   2.000   1.9956   0.07697   0.07030  -0.2975  0.3742  0.4122  -2.5479   0.0138   0.3869
   3.000   2.0880   0.07777   0.07114  -0.2940  0.3655  0.4539  -2.7063   0.0139   0.3764
   4.000   2.1680   0.07886   0.07247  -0.2888  0.3569  0.4958  -2.8613   0.0139   0.3665
   5.000   2.2507   0.08113   0.07486  -0.2843  0.3477  0.5000  -3.0407   0.0142   0.3572
   6.000   2.3246   0.08286   0.07677  -0.2787  0.3384  0.5000  -3.2316   0.0143   0.3484
   7.000   2.3766   0.08620   0.08036  -0.2703  0.3284  0.5000  -3.4215   0.0145   0.3396
   8.000   2.4280   0.08926   0.08368  -0.2623  0.3179  0.5000  -3.6850   0.0147   0.3313
   9.000   2.4605   0.09408   0.08872  -0.2525  0.3059  0.5000  -3.9467   0.0149   0.3231
  10.000   2.4716   0.10138   0.09646  -0.2415  0.2921  0.5000  -4.1801   0.0152   0.3151
  11.000   2.4835   0.10870   0.10414  -0.2322  0.2784  0.5000  -4.4211   0.0154   0.3078
  12.000   2.4838   0.11757   0.11339  -0.2242  0.2631  0.5000  -4.6434   0.0157   0.3013
  13.000   2.4669   0.12871   0.12491  -0.2182  0.2440  0.5000  -4.8209   0.0161   0.2959
  14.000   2.4309   0.14231   0.13881  -0.2158  0.2224  0.5000  -4.9391   0.0165   0.2925
  15.000   2.3796   0.15813   0.15495  -0.2182  0.1984  0.5000  -5.0029   0.0170   0.2914
  16.000   2.3214   0.17496   0.17191  -0.2245  0.1731  0.5000  -5.0267   0.0175   0.2922
  17.000   2.2738   0.19035   0.18750  -0.2325  0.1496  0.5000  -5.0666   0.0180   0.2935


