xflr5 v6.10.03

 Calculated polar for: S1223 MOD2015 FLAP

 1 1 Reynolds number fixed          Mach number fixed         

 xtrf =   0.500 (top)        0.500 (bottom)
 Mach =   0.080     Re =     0.280 e 6     Ncrit =   9.000

  alpha     CL        CD       CDp       Cm    Top Xtr Bot Xtr   Cpmin    Chinge    XCp    
 ------- -------- --------- --------- -------- ------- ------- -------- --------- ---------
  -5.000   0.9246   0.05127   0.04510  -0.2491  0.5000  0.0407  -1.7733   0.0089   0.5234
  -4.000   1.1030   0.05347   0.04707  -0.2600  0.4977  0.0462  -1.4810   0.0099   0.4870
  -3.000   1.4554   0.06705   0.06035  -0.3030  0.4558  0.2677  -1.8027   0.0124   0.4571
  -2.000   1.5398   0.06657   0.05982  -0.2976  0.4395  0.3090  -1.9143   0.0123   0.4399
  -1.000   1.6748   0.06885   0.06174  -0.3008  0.4239  0.3374  -2.0787   0.0126   0.4241
   0.000   1.7891   0.07091   0.06377  -0.3006  0.4117  0.3624  -2.2345   0.0129   0.4104
   1.000   1.8994   0.07172   0.06456  -0.2997  0.4009  0.3933  -2.3889   0.0131   0.3980
   2.000   1.9947   0.07325   0.06621  -0.2966  0.3905  0.4315  -2.5345   0.0133   0.3868
   3.000   2.0955   0.07322   0.06624  -0.2944  0.3815  0.4733  -2.6997   0.0133   0.3764
   4.000   2.1733   0.07550   0.06880  -0.2889  0.3718  0.5000  -2.8538   0.0135   0.3665
   5.000   2.2813   0.07667   0.06995  -0.2883  0.3617  0.5000  -3.0624   0.0137   0.3577
   6.000   2.3346   0.08023   0.07391  -0.2797  0.3517  0.5000  -3.2299   0.0140   0.3486
   7.000   2.4109   0.08146   0.07523  -0.2747  0.3412  0.5000  -3.4558   0.0141   0.3403
   8.000   2.4373   0.08658   0.08083  -0.2633  0.3301  0.5000  -3.6857   0.0144   0.3316
   9.000   2.4702   0.09099   0.08554  -0.2535  0.3181  0.5000  -3.9467   0.0146   0.3234
  10.000   2.4963   0.09586   0.09059  -0.2437  0.3042  0.5000  -4.2112   0.0149   0.3154
  11.000   2.4768   0.10608   0.10141  -0.2312  0.2899  0.5000  -4.3877   0.0153   0.3079
  12.000   2.4637   0.11634   0.11216  -0.2223  0.2748  0.5000  -4.5785   0.0157   0.3014
  13.000   2.4391   0.12860   0.12486  -0.2163  0.2578  0.5000  -4.7348   0.0161   0.2963
  14.000   2.4050   0.14233   0.13890  -0.2142  0.2374  0.5000  -4.8553   0.0165   0.2928
  15.000   2.3492   0.15926   0.15625  -0.2175  0.2138  0.5000  -4.8991   0.0170   0.2922
  16.000   2.3088   0.17365   0.17070  -0.2225  0.1889  0.5000  -4.9747   0.0174   0.2919
  17.000   2.2590   0.18964   0.18693  -0.2311  0.1637  0.5000  -5.0000   0.0179   0.2936


