xflr5 v6.10.03

 Calculated polar for: S1223 MOD2015

 1 1 Reynolds number fixed          Mach number fixed         

 xtrf =   0.500 (top)        0.500 (bottom)
 Mach =   0.080     Re =     0.660 e 6     Ncrit =   9.000

  alpha     CL        CD       CDp       Cm    Top Xtr Bot Xtr   Cpmin    Chinge    XCp    
 ------- -------- --------- --------- -------- ------- ------- -------- --------- ---------
  -5.000   0.3320   0.06560   0.06143  -0.1248  0.5000  0.0217  -1.4441   0.0000   0.6376
  -4.000   0.6660   0.01491   0.00831  -0.2550  0.4736  0.0197  -3.0077   0.0000   0.6393
  -3.000   0.8189   0.01404   0.00693  -0.2638  0.4405  0.0209  -2.2176   0.0000   0.5754
  -2.000   0.9569   0.01385   0.00647  -0.2688  0.4174  0.0222  -1.6243   0.0000   0.5317
  -1.000   1.0858   0.01407   0.00641  -0.2717  0.3990  0.0247  -1.5447   0.0000   0.4989
   0.000   1.2101   0.01433   0.00660  -0.2734  0.3866  0.0415  -1.6802   0.0000   0.4727
   1.000   1.3359   0.01477   0.00743  -0.2760  0.3757  0.2495  -1.8202   0.0000   0.4514
   2.000   1.4445   0.01550   0.00816  -0.2745  0.3668  0.2895  -1.9574   0.0000   0.4330
   3.000   1.5530   0.01646   0.00912  -0.2732  0.3581  0.3274  -2.1002   0.0000   0.4170
   4.000   1.6600   0.01726   0.01005  -0.2716  0.3511  0.3791  -2.2445   0.0000   0.4029
   5.000   1.7644   0.01846   0.01135  -0.2698  0.3430  0.4609  -2.3906   0.0000   0.3903
   6.000   1.8637   0.01957   0.01262  -0.2670  0.3364  0.5000  -2.5476   0.0000   0.3787
   7.000   1.9560   0.02082   0.01393  -0.2630  0.3291  0.5000  -2.7120   0.0000   0.3678
   8.000   2.0453   0.02248   0.01565  -0.2587  0.3207  0.5000  -2.8898   0.0000   0.3577
   9.000   2.1270   0.02397   0.01735  -0.2531  0.3130  0.5000  -3.0851   0.0000   0.3481
  10.000   2.2033   0.02611   0.01959  -0.2470  0.3034  0.5000  -3.3000   0.0000   0.3390
  11.000   2.2734   0.02813   0.02189  -0.2402  0.2939  0.5000  -3.5790   0.0000   0.3302
  12.000   2.3357   0.03086   0.02483  -0.2328  0.2804  0.5000  -3.8822   0.0000   0.3218
  13.000   2.3897   0.03444   0.02863  -0.2249  0.2671  0.5000  -4.1882   0.0000   0.3138
  14.000   2.4335   0.03915   0.03357  -0.2169  0.2507  0.5000  -4.4929   0.0000   0.3062
  15.000   2.4594   0.04593   0.04059  -0.2085  0.2308  0.5000  -4.7686   0.0000   0.2992
  16.000   2.4498   0.05742   0.05230  -0.2000  0.2064  0.5000  -4.9653   0.0000   0.2932
  17.000   2.3857   0.07824   0.07341  -0.1950  0.1790  0.5000  -5.0244   0.0000   0.2902


