xflr5 v6.10.03

 Calculated polar for: S1223 MOD2015 FLAP

 1 1 Reynolds number fixed          Mach number fixed         

 xtrf =   0.500 (top)        0.500 (bottom)
 Mach =   0.000     Re =     0.240 e 6     Ncrit =   9.000

  alpha     CL        CD       CDp       Cm    Top Xtr Bot Xtr   Cpmin    Chinge    XCp    
 ------- -------- --------- --------- -------- ------- ------- -------- --------- ---------
  -4.000   1.0943   0.05339   0.04680  -0.2587  0.5000  0.0512  -1.4700   0.0098   0.4877
  -3.000   0.5811   0.05026   0.04567  -0.1329  0.5000  0.0551  -1.2637   0.0032   0.4774
  -1.000   1.6364   0.06573   0.05865  -0.2943  0.4368  0.3430  -2.0326   0.0121   0.4245
   0.000   1.7714   0.06740   0.06008  -0.2977  0.4238  0.3709  -2.2046   0.0124   0.4106
   1.000   1.8886   0.06986   0.06254  -0.2982  0.4115  0.4051  -2.3638   0.0128   0.3983
   2.000   1.9958   0.07033   0.06303  -0.2971  0.4011  0.4451  -2.5193   0.0128   0.3871
   3.000   2.0710   0.07103   0.06400  -0.2910  0.3917  0.4780  -2.6561   0.0129   0.3766
   4.000   2.1916   0.07255   0.06550  -0.2924  0.3813  0.5000  -2.8568   0.0131   0.3673
   5.000   2.2669   0.07610   0.06938  -0.2871  0.3708  0.5000  -3.0261   0.0135   0.3581
   6.000   2.3533   0.07735   0.07073  -0.2835  0.3605  0.5000  -3.2340   0.0136   0.3496
   7.000   2.3923   0.08152   0.07534  -0.2734  0.3495  0.5000  -3.4097   0.0139   0.3408
   8.000   2.4444   0.08447   0.07856  -0.2656  0.3384  0.5000  -3.6794   0.0141   0.3325
   9.000   2.4762   0.08857   0.08294  -0.2555  0.3257  0.5000  -3.9381   0.0144   0.3243
  10.000   2.4709   0.09620   0.09112  -0.2425  0.3122  0.5000  -4.1364   0.0148   0.3161
  11.000   2.4705   0.10368   0.09899  -0.2316  0.2979  0.5000  -4.3490   0.0151   0.3086
  12.000   2.4663   0.11221   0.10786  -0.2226  0.2830  0.5000  -4.5598   0.0155   0.3018
  13.000   2.4438   0.12369   0.11977  -0.2157  0.2668  0.5000  -4.7219   0.0158   0.2962
  14.000   2.3895   0.14023   0.13688  -0.2131  0.2472  0.5000  -4.7906   0.0164   0.2931
  15.000   2.3356   0.15711   0.15413  -0.2159  0.2239  0.5000  -4.8395   0.0169   0.2923
  16.000   2.2901   0.17253   0.16977  -0.2215  0.1993  0.5000  -4.8957   0.0173   0.2924
  17.000   2.2636   0.18466   0.18191  -0.2269  0.1746  0.5000  -5.0010   0.0177   0.2919


