xflr5 v6.10.03

 Calculated polar for: S1223 MOD2015

 1 1 Reynolds number fixed          Mach number fixed         

 xtrf =   0.500 (top)        0.500 (bottom)
 Mach =   0.080     Re =     0.740 e 6     Ncrit =   9.000

  alpha     CL        CD       CDp       Cm    Top Xtr Bot Xtr   Cpmin    Chinge    XCp    
 ------- -------- --------- --------- -------- ------- ------- -------- --------- ---------
  -5.000   0.3057   0.06291   0.05891  -0.1240  0.5000  0.0204  -1.7936   0.0000   0.6688
  -4.000   0.3274   0.05637   0.05236  -0.1214  0.4730  0.0213  -1.6250   0.0000   0.6296
  -3.000   0.8249   0.01367   0.00671  -0.2650  0.4350  0.0198  -2.2204   0.0000   0.5745
  -2.000   0.9647   0.01343   0.00616  -0.2704  0.4117  0.0207  -1.6319   0.0000   0.5311
  -1.000   1.0918   0.01362   0.00615  -0.2729  0.3950  0.0232  -1.5507   0.0000   0.4986
   0.000   1.2130   0.01408   0.00641  -0.2740  0.3798  0.0308  -1.6838   0.0000   0.4726
   1.000   1.3419   0.01427   0.00707  -0.2772  0.3714  0.2376  -1.8268   0.0000   0.4514
   2.000   1.4492   0.01520   0.00794  -0.2755  0.3604  0.2831  -1.9626   0.0000   0.4331
   3.000   1.5576   0.01587   0.00870  -0.2740  0.3545  0.3205  -2.1066   0.0000   0.4171
   4.000   1.6639   0.01675   0.00966  -0.2724  0.3468  0.3715  -2.2508   0.0000   0.4029
   5.000   1.7679   0.01791   0.01096  -0.2705  0.3395  0.4493  -2.3956   0.0000   0.3903
   6.000   1.8671   0.01889   0.01211  -0.2676  0.3328  0.5000  -2.5534   0.0000   0.3787
   7.000   1.9592   0.02035   0.01355  -0.2636  0.3244  0.5000  -2.7172   0.0000   0.3679
   8.000   2.0482   0.02169   0.01505  -0.2591  0.3178  0.5000  -2.8953   0.0000   0.3578
   9.000   2.1306   0.02325   0.01674  -0.2537  0.3094  0.5000  -3.0917   0.0000   0.3482
  10.000   2.2089   0.02516   0.01883  -0.2479  0.3006  0.5000  -3.3095   0.0000   0.3391
  11.000   2.2789   0.02736   0.02117  -0.2411  0.2897  0.5000  -3.5902   0.0000   0.3303
  12.000   2.3461   0.02981   0.02385  -0.2343  0.2762  0.5000  -3.9034   0.0000   0.3220
  13.000   2.4038   0.03316   0.02742  -0.2269  0.2627  0.5000  -4.2171   0.0000   0.3141
  14.000   2.4478   0.03780   0.03225  -0.2187  0.2450  0.5000  -4.5251   0.0000   0.3064
  15.000   2.4692   0.04494   0.03957  -0.2096  0.2233  0.5000  -4.7924   0.0000   0.2993
  16.000   2.4519   0.05726   0.05204  -0.2005  0.1926  0.5000  -4.9727   0.0000   0.2933
  17.000   2.3806   0.07922   0.07430  -0.1956  0.1651  0.5000  -5.0138   0.0000   0.2906


