XFLR5 v6.09.06

 Calculated polar for: S1223 MOD2015

 1 1 Reynolds number fixed          Mach number fixed         

 xtrf =   1.000 (top)        1.000 (bottom)
 Mach =   0.080     Re =     0.240 e 6     Ncrit =   9.000

  alpha     CL        CD       CDp       Cm    Top Xtr Bot Xtr   Cpmin    Chinge    XCp    
 ------- -------- --------- --------- -------- ------- ------- -------- --------- ---------
 -10.000  -0.0571   0.14040   0.13722  -0.0530  0.9754  0.0273  -1.2593   0.0000  -0.7940
  -9.500  -0.0202   0.13282   0.12966  -0.0590  0.9680  0.0278  -1.2157   0.0000  -2.9910
  -9.000   0.0171   0.12607   0.12292  -0.0649  0.9600  0.0289  -1.1499   0.0000   4.4148
  -8.500   0.0511   0.11904   0.11591  -0.0716  0.9511  0.0309  -1.1804   0.0000   1.7681
  -8.000   0.0813   0.11174   0.10863  -0.0782  0.9407  0.0320  -1.2595   0.0000   1.2824
  -7.500   0.1173   0.10543   0.10234  -0.0824  0.9283  0.0337  -1.1795   0.0000   0.9989
  -6.000   0.1717   0.08759   0.08459  -0.0958  0.8586  0.0413  -1.4719   0.0000   0.8327
  -5.500   0.2732   0.07755   0.07429  -0.1089  0.8078  0.0454  -1.1570   0.0000   0.6633
  -5.000   0.3693   0.06848   0.06426  -0.1308  0.6756  0.0496  -1.0975   0.0000   0.6148
  -4.500   0.3586   0.06662   0.06201  -0.1252  0.6106  0.0523  -1.1198   0.0000   0.6083
  -4.000   0.3566   0.06207   0.05733  -0.1257  0.5781  0.0547  -1.2218   0.0000   0.6102
  -3.500   0.3760   0.05935   0.05442  -0.1234  0.5515  0.0573  -1.1068   0.0000   0.5840
  -3.000   0.4050   0.05284   0.04784  -0.1325  0.5333  0.0630  -1.1846   0.0000   0.5814
  -2.500   0.5380   0.03522   0.02985  -0.1753  0.5154  0.0568  -1.5872   0.0000   0.5785
  -2.000   0.9115   0.01825   0.00969  -0.2591  0.4866  0.0423  -1.5090   0.0000   0.5352
  -1.500   0.9890   0.01814   0.00949  -0.2634  0.4735  0.0451  -1.4359   0.0000   0.5162
  -0.500   1.1568   0.01817   0.00962  -0.2752  0.4514  0.2252  -1.5942   0.0000   0.4857
   0.000   1.2163   0.01900   0.01025  -0.2754  0.4434  0.2743  -1.6583   0.0000   0.4733
   0.500   1.2773   0.01966   0.01085  -0.2760  0.4362  0.3029  -1.7259   0.0000   0.4621
   1.000   1.3333   0.02018   0.01139  -0.2756  0.4290  0.3295  -1.7916   0.0000   0.4517
   1.500   1.3984   0.02074   0.01179  -0.2772  0.4229  0.3475  -1.8665   0.0000   0.4424
   2.000   1.4637   0.02142   0.01238  -0.2789  0.4174  0.3643  -1.9428   0.0000   0.4338
   2.500   1.5203   0.02189   0.01291  -0.2788  0.4118  0.3848  -2.0132   0.0000   0.4257
   3.000   1.5792   0.02240   0.01346  -0.2792  0.4063  0.4090  -2.0867   0.0000   0.4182
   3.500   1.6431   0.02316   0.01420  -0.2807  0.4014  0.4426  -2.1646   0.0000   0.4113
   4.000   1.7022   0.02397   0.01515  -0.2813  0.3966  0.4864  -2.2405   0.0000   0.4048
   4.500   1.7562   0.02462   0.01604  -0.2808  0.3917  0.5405  -2.3165   0.0000   0.3984
   5.000   1.8128   0.02533   0.01694  -0.2808  0.3871  0.6199  -2.3985   0.0000   0.3925
   5.500   1.8685   0.02599   0.01781  -0.2806  0.3827  0.7622  -2.4828   0.0000   0.3868
   6.500   1.9561   0.02770   0.01978  -0.2757  0.3736  1.0000  -2.6362   0.0000   0.3756
   7.000   2.0024   0.02862   0.02076  -0.2739  0.3687  1.0000  -2.7232   0.0000   0.3704
   7.500   2.0530   0.02949   0.02159  -0.2729  0.3640  1.0000  -2.8184   0.0000   0.3655
   8.000   2.1074   0.03090   0.02298  -0.2729  0.3591  1.0000  -2.9253   0.0000   0.3610
   8.500   2.1379   0.03198   0.02433  -0.2681  0.3543  1.0000  -3.0088   0.0000   0.3558
   9.000   2.1727   0.03303   0.02552  -0.2641  0.3490  1.0000  -3.0990   0.0000   0.3510
   9.500   2.2176   0.03390   0.02639  -0.2622  0.3441  1.0000  -3.2202   0.0000   0.3465
  10.000   2.2537   0.03541   0.02802  -0.2589  0.3388  1.0000  -3.3318   0.0000   0.3420
  10.500   2.2643   0.03692   0.02985  -0.2507  0.3334  1.0000  -3.4350   0.0000   0.3368
  11.000   2.2920   0.03809   0.03114  -0.2459  0.3280  1.0000  -3.5751   0.0000   0.3322
  11.500   2.3360   0.03922   0.03221  -0.2442  0.3218  1.0000  -3.7460   0.0000   0.3282
  12.000   2.3266   0.04170   0.03514  -0.2336  0.3161  1.0000  -3.8261   0.0000   0.3229
  12.500   2.3410   0.04345   0.03705  -0.2273  0.3098  1.0000  -3.9548   0.0000   0.3184
  13.000   2.3660   0.04502   0.03865  -0.2230  0.3032  1.0000  -4.1056   0.0000   0.3143
  13.500   2.3480   0.04890   0.04296  -0.2134  0.2963  1.0000  -4.1714   0.0000   0.3097
  14.000   2.3600   0.05118   0.04532  -0.2083  0.2894  1.0000  -4.3022   0.0000   0.3057
  14.500   2.3460   0.05609   0.05058  -0.2016  0.2820  1.0000  -4.3787   0.0000   0.3020
  15.000   2.3406   0.06068   0.05539  -0.1967  0.2743  1.0000  -4.4731   0.0000   0.2987
  15.500   2.3279   0.06685   0.06182  -0.1926  0.2664  1.0000  -4.5477   0.0000   0.2960
  16.000   2.3134   0.07374   0.06892  -0.1897  0.2578  1.0000  -4.6160   0.0000   0.2937
  16.500   2.2800   0.08396   0.07948  -0.1882  0.2480  1.0000  -4.6338   0.0000   0.2927
  17.000   2.2628   0.09254   0.08816  -0.1879  0.2379  1.0000  -4.6878   0.0000   0.2916


