xflr5 v6.10.03

 Calculated polar for: S1223 MOD2015

 1 1 Reynolds number fixed          Mach number fixed         

 xtrf =   0.500 (top)        0.500 (bottom)
 Mach =   0.000     Re =     0.580 e 6     Ncrit =   9.000

  alpha     CL        CD       CDp       Cm    Top Xtr Bot Xtr   Cpmin    Chinge    XCp    
 ------- -------- --------- --------- -------- ------- ------- -------- --------- ---------
  -3.000   0.8085   0.01443   0.00724  -0.2612  0.4512  0.0224  -2.2045   0.0000   0.5764
  -2.000   0.9455   0.01428   0.00675  -0.2662  0.4261  0.0237  -1.6098   0.0000   0.5324
  -1.000   1.0780   0.01435   0.00659  -0.2701  0.4078  0.0267  -1.5325   0.0000   0.4992
   0.000   1.2087   0.01459   0.00684  -0.2735  0.3935  0.0970  -1.6708   0.0000   0.4730
   1.000   1.3258   0.01528   0.00773  -0.2742  0.3810  0.2609  -1.8041   0.0000   0.4517
   2.000   1.4350   0.01600   0.00847  -0.2730  0.3729  0.2973  -1.9402   0.0000   0.4332
   3.000   1.5436   0.01688   0.00935  -0.2719  0.3639  0.3357  -2.0828   0.0000   0.4173
   4.000   1.6520   0.01784   0.01042  -0.2708  0.3562  0.3892  -2.2260   0.0000   0.4032
   5.000   1.7571   0.01881   0.01160  -0.2693  0.3493  0.4767  -2.3729   0.0000   0.3906
   6.000   1.8585   0.02022   0.01299  -0.2672  0.3404  0.5000  -2.5306   0.0000   0.3792
   7.000   1.9489   0.02139   0.01432  -0.2629  0.3340  0.5000  -2.6920   0.0000   0.3683
   8.000   2.0360   0.02291   0.01588  -0.2583  0.3256  0.5000  -2.8671   0.0000   0.3582
   9.000   2.1193   0.02460   0.01777  -0.2533  0.3177  0.5000  -3.0622   0.0000   0.3487
  10.000   2.1932   0.02648   0.01982  -0.2468  0.3088  0.5000  -3.2736   0.0000   0.3395
  11.000   2.2615   0.02878   0.02237  -0.2400  0.2988  0.5000  -3.5475   0.0000   0.3307
  12.000   2.3181   0.03169   0.02545  -0.2318  0.2858  0.5000  -3.8373   0.0000   0.3222
  13.000   2.3697   0.03520   0.02922  -0.2238  0.2726  0.5000  -4.1353   0.0000   0.3142
  14.000   2.4134   0.03978   0.03409  -0.2160  0.2576  0.5000  -4.4350   0.0000   0.3067
  15.000   2.4370   0.04665   0.04120  -0.2075  0.2391  0.5000  -4.7017   0.0000   0.2997
  16.000   2.4419   0.05642   0.05129  -0.2000  0.2179  0.5000  -4.9270   0.0000   0.2936
  17.000   2.3938   0.07455   0.06971  -0.1945  0.1932  0.5000  -5.0255   0.0000   0.2899


