XFLR5 v6.09.06

 Calculated polar for: S1223 MOD2015

 1 1 Reynolds number fixed          Mach number fixed         

 xtrf =   1.000 (top)        1.000 (bottom)
 Mach =   0.000     Re =     0.360 e 6     Ncrit =   9.000

  alpha     CL        CD       CDp       Cm    Top Xtr Bot Xtr   Cpmin    Chinge    XCp    
 ------- -------- --------- --------- -------- ------- ------- -------- --------- ---------
 -10.000   0.0123   0.13044   0.12769  -0.0701  0.9665  0.0205  -1.2096   0.0000   6.5124
  -9.500   0.0428   0.12418   0.12145  -0.0746  0.9593  0.0211  -1.1601   0.0000   2.1569
  -9.000   0.0739   0.11768   0.11496  -0.0798  0.9522  0.0219  -1.1493   0.0000   1.4194
  -8.500   0.1098   0.11000   0.10728  -0.0880  0.9468  0.0233  -1.2495   0.0000   1.1099
  -8.000   0.2266   0.08034   0.07786  -0.0944  0.8799  0.0259  -0.9401   0.0000   0.6842
  -7.500   0.2541   0.07137   0.06882  -0.1019  0.8574  0.0277  -1.0897   0.0000   0.6666
  -7.000   0.3371   0.05879   0.05588  -0.1246  0.8036  0.0315  -1.1236   0.0000   0.6320
  -6.500   0.3824   0.05399   0.05018  -0.1290  0.6532  0.0332  -0.9497   0.0000   0.5975
  -6.000   0.3638   0.05064   0.04660  -0.1263  0.6009  0.0360  -1.1282   0.0000   0.6065
  -5.500   0.3580   0.06977   0.06572  -0.1324  0.6462  0.0343  -1.1948   0.0000   0.6326
  -5.000   0.3202   0.06626   0.06206  -0.1274  0.5985  0.0363  -1.4953   0.0000   0.6602
  -4.500   0.3314   0.06447   0.06006  -0.1219  0.5576  0.0370  -1.3170   0.0000   0.6277
  -4.000   0.3397   0.06167   0.05716  -0.1191  0.5325  0.0386  -1.2469   0.0000   0.6085
  -3.500   0.3521   0.05462   0.05009  -0.1255  0.5165  0.0419  -1.4097   0.0000   0.6127
  -3.000   0.3798   0.05167   0.04705  -0.1259  0.4991  0.0439  -1.2654   0.0000   0.5857
  -2.000   0.9227   0.01612   0.00807  -0.2614  0.4567  0.0323  -1.5591   0.0000   0.5342
  -1.500   0.9941   0.01613   0.00792  -0.2645  0.4446  0.0340  -1.4437   0.0000   0.5159
  -1.000   1.0634   0.01622   0.00786  -0.2671  0.4348  0.0369  -1.5134   0.0000   0.4999
  -0.500   1.1304   0.01637   0.00789  -0.2691  0.4262  0.0472  -1.5824   0.0000   0.4858
   0.000   1.2066   0.01654   0.00838  -0.2735  0.4182  0.2303  -1.6584   0.0000   0.4735
   0.500   1.2602   0.01696   0.00884  -0.2726  0.4117  0.2692  -1.7197   0.0000   0.4622
   1.000   1.3158   0.01742   0.00923  -0.2722  0.4056  0.2913  -1.7861   0.0000   0.4518
   1.500   1.3776   0.01809   0.00976  -0.2732  0.3993  0.3137  -1.8568   0.0000   0.4423
   2.000   1.4336   0.01842   0.01014  -0.2729  0.3952  0.3300  -1.9272   0.0000   0.4334
   2.500   1.4895   0.01881   0.01055  -0.2726  0.3901  0.3474  -1.9985   0.0000   0.4252
   3.000   1.5459   0.01928   0.01102  -0.2725  0.3853  0.3692  -2.0709   0.0000   0.4175
   3.500   1.6108   0.02002   0.01170  -0.2743  0.3800  0.3984  -2.1498   0.0000   0.4106
   4.000   1.6640   0.02049   0.01232  -0.2736  0.3763  0.4336  -2.2196   0.0000   0.4038
   4.500   1.7176   0.02101   0.01300  -0.2731  0.3722  0.4807  -2.2933   0.0000   0.3974
   5.000   1.7728   0.02158   0.01371  -0.2729  0.3681  0.5419  -2.3734   0.0000   0.3914
   5.500   1.8291   0.02223   0.01450  -0.2730  0.3639  0.6303  -2.4569   0.0000   0.3857
   6.000   1.8905   0.02300   0.01553  -0.2741  0.3591  0.8111  -2.5480   0.0000   0.3805
   7.000   1.9675   0.02409   0.01686  -0.2671  0.3515  1.0000  -2.6972   0.0000   0.3692
   7.500   2.0121   0.02484   0.01762  -0.2649  0.3472  1.0000  -2.7859   0.0000   0.3641
   8.000   2.0642   0.02579   0.01851  -0.2645  0.3424  1.0000  -2.8862   0.0000   0.3595
   8.500   2.1044   0.02677   0.01962  -0.2616  0.3383  1.0000  -2.9812   0.0000   0.3547
   9.000   2.1389   0.02769   0.02070  -0.2577  0.3339  1.0000  -3.0708   0.0000   0.3498
   9.500   2.1749   0.02861   0.02170  -0.2542  0.3292  1.0000  -3.1728   0.0000   0.3450
  10.000   2.2169   0.02966   0.02272  -0.2520  0.3239  1.0000  -3.2928   0.0000   0.3407
  10.500   2.2476   0.03097   0.02423  -0.2478  0.3194  1.0000  -3.4196   0.0000   0.3361
  11.000   2.2700   0.03228   0.02574  -0.2422  0.3140  1.0000  -3.5495   0.0000   0.3314
  11.500   2.2963   0.03360   0.02715  -0.2375  0.3086  1.0000  -3.6879   0.0000   0.3270
  12.000   2.3241   0.03522   0.02887  -0.2334  0.3027  1.0000  -3.8350   0.0000   0.3228
  12.500   2.3351   0.03725   0.03117  -0.2268  0.2963  1.0000  -3.9558   0.0000   0.3183
  13.000   2.3515   0.03929   0.03329  -0.2215  0.2896  1.0000  -4.0884   0.0000   0.3141
  13.500   2.3641   0.04192   0.03616  -0.2162  0.2829  1.0000  -4.2130   0.0000   0.3101
  14.000   2.3749   0.04484   0.03928  -0.2112  0.2758  1.0000  -4.3420   0.0000   0.3062
  14.500   2.3846   0.04824   0.04281  -0.2067  0.2688  1.0000  -4.4692   0.0000   0.3026
  15.000   2.3886   0.05238   0.04720  -0.2024  0.2604  1.0000  -4.5835   0.0000   0.2993
  15.500   2.3876   0.05741   0.05241  -0.1985  0.2517  1.0000  -4.6865   0.0000   0.2963
  16.000   2.3787   0.06376   0.05893  -0.1951  0.2417  1.0000  -4.7705   0.0000   0.2937
  16.500   2.3643   0.07145   0.06688  -0.1927  0.2314  1.0000  -4.8383   0.0000   0.2917
  17.000   2.3381   0.08132   0.07692  -0.1915  0.2207  1.0000  -4.8747   0.0000   0.2905


