xflr5 v6.10.03

 Calculated polar for: S1223 MOD2015 FLAP

 1 1 Reynolds number fixed          Mach number fixed         

 xtrf =   0.500 (top)        0.500 (bottom)
 Mach =   0.000     Re =     0.520 e 6     Ncrit =   9.000

  alpha     CL        CD       CDp       Cm    Top Xtr Bot Xtr   Cpmin    Chinge    XCp    
 ------- -------- --------- --------- -------- ------- ------- -------- --------- ---------
  -5.000   0.9430   0.05157   0.04609  -0.2505  0.4873  0.0286  -1.8232   0.0093   0.5198
  -4.000   1.1944   0.05948   0.05352  -0.2767  0.4453  0.0329  -1.5540   0.0112   0.4829
  -3.000   1.4825   0.07199   0.06593  -0.3082  0.4151  0.2326  -1.8321   0.0133   0.4566
  -2.000   1.5906   0.07394   0.06772  -0.3072  0.3999  0.2767  -1.9676   0.0135   0.4396
  -1.000   1.6917   0.07553   0.06920  -0.3050  0.3881  0.3033  -2.1039   0.0136   0.4246
   0.000   1.7937   0.07706   0.07070  -0.3030  0.3781  0.3255  -2.2500   0.0138   0.4110
   1.000   1.8900   0.07867   0.07230  -0.3002  0.3691  0.3556  -2.3949   0.0140   0.3987
   2.000   1.9861   0.07964   0.07331  -0.2973  0.3603  0.3932  -2.5399   0.0141   0.3873
   3.000   2.0714   0.08123   0.07506  -0.2929  0.3529  0.4342  -2.6888   0.0142   0.3768
   4.000   2.1566   0.08198   0.07583  -0.2886  0.3432  0.4771  -2.8491   0.0143   0.3670
   5.000   2.2303   0.08410   0.07820  -0.2829  0.3361  0.5000  -3.0154   0.0144   0.3576
   6.000   2.2998   0.08626   0.08048  -0.2769  0.3271  0.5000  -3.1996   0.0146   0.3487
   7.000   2.3629   0.08849   0.08291  -0.2702  0.3178  0.5000  -3.4003   0.0147   0.3401
   8.000   2.4079   0.09238   0.08700  -0.2615  0.3073  0.5000  -3.6518   0.0149   0.3317
   9.000   2.4460   0.09690   0.09183  -0.2526  0.2950  0.5000  -3.9211   0.0150   0.3236
  10.000   2.4732   0.10249   0.09766  -0.2434  0.2820  0.5000  -4.1836   0.0152   0.3158
  11.000   2.4942   0.10868   0.10410  -0.2348  0.2679  0.5000  -4.4458   0.0154   0.3084
  12.000   2.5015   0.11654   0.11227  -0.2268  0.2509  0.5000  -4.6838   0.0157   0.3018
  13.000   2.4957   0.12587   0.12194  -0.2204  0.2315  0.5000  -4.8888   0.0160   0.2960
  14.000   2.4625   0.13867   0.13500  -0.2168  0.2077  0.5000  -5.0188   0.0163   0.2920
  15.000   2.4057   0.15480   0.15139  -0.2182  0.1816  0.5000  -5.0774   0.0168   0.2906
  16.000   2.3380   0.17279   0.16956  -0.2245  0.1569  0.5000  -5.0791   0.0174   0.2917
  17.000   2.2804   0.18953   0.18644  -0.2330  0.1334  0.5000  -5.0929   0.0179   0.2936


