XFLR5 v6.09.06

 Calculated polar for: S1223 MOD2015

 1 1 Reynolds number fixed          Mach number fixed         

 xtrf =   1.000 (top)        1.000 (bottom)
 Mach =   0.080     Re =     0.500 e 6     Ncrit =   9.000

  alpha     CL        CD       CDp       Cm    Top Xtr Bot Xtr   Cpmin    Chinge    XCp    
 ------- -------- --------- --------- -------- ------- ------- -------- --------- ---------
 -10.000   0.0562   0.12412   0.12169  -0.0822  0.9596  0.0172  -1.2404   0.0000   1.8460
  -9.500   0.0945   0.11746   0.11503  -0.0888  0.9563  0.0175  -1.1772   0.0000   1.2677
  -9.000   0.1210   0.11145   0.10905  -0.0924  0.9478  0.0181  -1.1582   0.0000   1.0707
  -8.500   0.1446   0.10557   0.10319  -0.0952  0.9373  0.0188  -1.1673   0.0000   0.9544
  -8.000   0.1616   0.09905   0.09668  -0.0988  0.9241  0.0199  -1.3406   0.0000   0.9003
  -7.500   0.1676   0.09292   0.09058  -0.1001  0.9031  0.0202  -1.5451   0.0000   0.8824
  -7.000   0.2213   0.08656   0.08416  -0.1066  0.8748  0.0209  -1.3239   0.0000   0.7566
  -6.500   0.3462   0.07291   0.06968  -0.1403  0.7500  0.0240  -1.4223   0.0000   0.6723
  -6.000   0.3409   0.07196   0.06802  -0.1328  0.6169  0.0245  -1.3419   0.0000   0.6548
  -5.500   0.3420   0.06957   0.06540  -0.1289  0.5665  0.0255  -1.3134   0.0000   0.6401
  -5.000   0.3063   0.06452   0.06037  -0.1250  0.5467  0.0274  -1.7041   0.0000   0.6711
  -4.500   0.3207   0.06305   0.05880  -0.1204  0.5197  0.0281  -1.4647   0.0000   0.6356
  -4.000   0.3315   0.06018   0.05588  -0.1183  0.5007  0.0295  -1.3733   0.0000   0.6151
  -3.500   0.3446   0.05243   0.04812  -0.1250  0.4879  0.0321  -1.5660   0.0000   0.6194
  -3.000   0.3775   0.04879   0.04445  -0.1280  0.4739  0.0337  -1.4261   0.0000   0.5937
  -2.500   0.8706   0.01490   0.00737  -0.2626  0.4456  0.0247  -1.8908   0.0000   0.5536
  -2.000   0.9400   0.01483   0.00718  -0.2652  0.4340  0.0261  -1.6069   0.0000   0.5330
  -1.500   1.0060   0.01494   0.00710  -0.2670  0.4229  0.0274  -1.4622   0.0000   0.5152
  -1.000   1.0741   0.01497   0.00703  -0.2693  0.4147  0.0293  -1.5323   0.0000   0.4994
  -0.500   1.1371   0.01514   0.00710  -0.2703  0.4071  0.0329  -1.5997   0.0000   0.4854
   0.000   1.2126   0.01522   0.00740  -0.2745  0.3988  0.1673  -1.6762   0.0000   0.4731
   0.500   1.2695   0.01549   0.00778  -0.2743  0.3936  0.2337  -1.7404   0.0000   0.4618
   1.000   1.3239   0.01590   0.00822  -0.2735  0.3883  0.2699  -1.8060   0.0000   0.4514
   1.500   1.3793   0.01638   0.00863  -0.2730  0.3829  0.2875  -1.8734   0.0000   0.4419
   2.000   1.4360   0.01689   0.00911  -0.2729  0.3781  0.3067  -1.9443   0.0000   0.4330
   2.500   1.4904   0.01724   0.00950  -0.2722  0.3740  0.3233  -2.0155   0.0000   0.4247
   3.000   1.5453   0.01766   0.00994  -0.2717  0.3699  0.3434  -2.0874   0.0000   0.4169
   3.500   1.6001   0.01815   0.01046  -0.2712  0.3656  0.3681  -2.1599   0.0000   0.4097
   4.000   1.6589   0.01888   0.01116  -0.2717  0.3600  0.4003  -2.2352   0.0000   0.4030
   4.500   1.7113   0.01932   0.01176  -0.2707  0.3575  0.4401  -2.3065   0.0000   0.3965
   5.000   1.7641   0.01983   0.01241  -0.2699  0.3541  0.4918  -2.3836   0.0000   0.3904
   5.500   1.8162   0.02037   0.01312  -0.2690  0.3501  0.5582  -2.4640   0.0000   0.3845
   6.000   1.8685   0.02099   0.01390  -0.2683  0.3460  0.6536  -2.5466   0.0000   0.3790
   7.000   1.9610   0.02218   0.01548  -0.2643  0.3382  1.0000  -2.7104   0.0000   0.3681
   7.500   2.0043   0.02291   0.01628  -0.2618  0.3344  1.0000  -2.7975   0.0000   0.3630
   8.000   2.0470   0.02368   0.01709  -0.2592  0.3302  1.0000  -2.8857   0.0000   0.3579
   8.500   2.0896   0.02459   0.01800  -0.2568  0.3258  1.0000  -2.9852   0.0000   0.3531
   9.000   2.1347   0.02564   0.01909  -0.2550  0.3212  1.0000  -3.0876   0.0000   0.3486
   9.500   2.1688   0.02658   0.02018  -0.2510  0.3170  1.0000  -3.1842   0.0000   0.3438
  10.000   2.2041   0.02761   0.02132  -0.2475  0.3126  1.0000  -3.2957   0.0000   0.3392
  10.500   2.2374   0.02882   0.02257  -0.2437  0.3075  1.0000  -3.4205   0.0000   0.3347
  11.000   2.2702   0.03019   0.02405  -0.2401  0.3022  1.0000  -3.5686   0.0000   0.3303
  11.500   2.2980   0.03157   0.02561  -0.2357  0.2969  1.0000  -3.7101   0.0000   0.3260
  12.000   2.3218   0.03322   0.02733  -0.2310  0.2902  1.0000  -3.8514   0.0000   0.3217
  12.500   2.3459   0.03510   0.02937  -0.2266  0.2835  1.0000  -3.9976   0.0000   0.3175
  13.000   2.3691   0.03709   0.03151  -0.2224  0.2765  1.0000  -4.1436   0.0000   0.3136
  13.500   2.3872   0.03970   0.03421  -0.2179  0.2698  1.0000  -4.2822   0.0000   0.3097
  14.000   2.4076   0.04221   0.03694  -0.2140  0.2621  1.0000  -4.4329   0.0000   0.3060
  14.500   2.4169   0.04585   0.04068  -0.2095  0.2537  1.0000  -4.5616   0.0000   0.3024
  15.000   2.4268   0.04972   0.04472  -0.2056  0.2439  1.0000  -4.6913   0.0000   0.2991
  15.500   2.4286   0.05471   0.04987  -0.2017  0.2342  1.0000  -4.8031   0.0000   0.2960
  16.000   2.4173   0.06158   0.05686  -0.1981  0.2235  1.0000  -4.8840   0.0000   0.2935
  16.500   2.4019   0.06957   0.06504  -0.1956  0.2121  1.0000  -4.9523   0.0000   0.2914
  17.000   2.3734   0.08000   0.07568  -0.1943  0.2005  1.0000  -4.9863   0.0000   0.2903


