xflr5 v6.10.03

 Calculated polar for: S1223 MOD2015

 1 1 Reynolds number fixed          Mach number fixed         

 xtrf =   0.500 (top)        0.500 (bottom)
 Mach =   0.000     Re =     0.980 e 6     Ncrit =   9.000

  alpha     CL        CD       CDp       Cm    Top Xtr Bot Xtr   Cpmin    Chinge    XCp    
 ------- -------- --------- --------- -------- ------- ------- -------- --------- ---------
  -5.000   0.5601   0.01390   0.00797  -0.2564  0.4824  0.0160  -3.8133   0.0000   0.7182
  -4.000   0.7066   0.01310   0.00667  -0.2638  0.4470  0.0168  -2.9434   0.0000   0.6296
  -3.000   0.8522   0.01254   0.00575  -0.2709  0.4188  0.0177  -2.2162   0.0000   0.5711
  -2.000   0.9824   0.01252   0.00549  -0.2742  0.3979  0.0184  -1.6171   0.0000   0.5299
  -1.000   1.1049   0.01274   0.00553  -0.2757  0.3819  0.0199  -1.5579   0.0000   0.4982
   0.000   1.2251   0.01300   0.00571  -0.2767  0.3711  0.0249  -1.6912   0.0000   0.4725
   1.000   1.3523   0.01334   0.00638  -0.2796  0.3595  0.2178  -1.8318   0.0000   0.4516
   2.000   1.4621   0.01385   0.00701  -0.2785  0.3530  0.2722  -1.9708   0.0000   0.4335
   3.000   1.5680   0.01466   0.00780  -0.2768  0.3440  0.3095  -2.1128   0.0000   0.4176
   4.000   1.6735   0.01545   0.00870  -0.2750  0.3382  0.3570  -2.2558   0.0000   0.4036
   5.000   1.7764   0.01626   0.00966  -0.2729  0.3321  0.4263  -2.4000   0.0000   0.3910
   6.000   1.8735   0.01756   0.01104  -0.2699  0.3227  0.5000  -2.5543   0.0000   0.3794
   7.000   1.9689   0.01847   0.01206  -0.2665  0.3179  0.5000  -2.7213   0.0000   0.3687
   8.000   2.0578   0.01969   0.01337  -0.2621  0.3105  0.5000  -2.8998   0.0000   0.3586
   9.000   2.1423   0.02122   0.01500  -0.2572  0.3020  0.5000  -3.0981   0.0000   0.3492
  10.000   2.2246   0.02267   0.01658  -0.2522  0.2928  0.5000  -3.3236   0.0000   0.3402
  11.000   2.3011   0.02449   0.01855  -0.2465  0.2805  0.5000  -3.6219   0.0000   0.3317
  12.000   2.3692   0.02688   0.02107  -0.2398  0.2676  0.5000  -3.9386   0.0000   0.3234
  13.000   2.4291   0.02992   0.02424  -0.2325  0.2511  0.5000  -4.2571   0.0000   0.3154
  14.000   2.4696   0.03463   0.02900  -0.2235  0.2258  0.5000  -4.5608   0.0000   0.3077
  15.000   2.4765   0.04282   0.03718  -0.2123  0.1881  0.5000  -4.7972   0.0000   0.3002
  16.000   2.4536   0.05539   0.04987  -0.2021  0.1587  0.5000  -4.9642   0.0000   0.2940
  17.000   2.3956   0.07517   0.06995  -0.1965  0.1380  0.5000  -5.0399   0.0000   0.2906


