XFLR5 v6.09.06

 Calculated polar for: S1223 MOD2015

 1 1 Reynolds number fixed          Mach number fixed         

 xtrf =   1.000 (top)        1.000 (bottom)
 Mach =   0.000     Re =     0.220 e 6     Ncrit =   9.000

  alpha     CL        CD       CDp       Cm    Top Xtr Bot Xtr   Cpmin    Chinge    XCp    
 ------- -------- --------- --------- -------- ------- ------- -------- --------- ---------
 -10.000  -0.0738   0.14252   0.13926  -0.0463  0.9792  0.0284  -1.1567   0.0000  -0.4642
  -9.500  -0.0362   0.13541   0.13216  -0.0535  0.9713  0.0298  -1.1380   0.0000  -1.4001
  -9.000  -0.0067   0.12833   0.12508  -0.0623  0.9623  0.0315  -1.2814   0.0000  -9.9086
  -8.500   0.0358   0.12063   0.11740  -0.0684  0.9552  0.0323  -1.2003   0.0000   2.3266
  -8.000   0.0768   0.11360   0.11038  -0.0755  0.9469  0.0345  -1.1641   0.0000   1.3070
  -7.500   0.1021   0.10648   0.10328  -0.0828  0.9341  0.0364  -1.3110   0.0000   1.1150
  -7.000   0.1339   0.10055   0.09740  -0.0841  0.9165  0.0382  -1.1917   0.0000   0.9159
  -6.500   0.1416   0.09496   0.09186  -0.0916  0.8948  0.0413  -1.4416   0.0000   0.9306
  -6.000   0.1804   0.08888   0.08580  -0.0889  0.8656  0.0436  -1.1919   0.0000   0.7662
  -5.500   0.1921   0.08276   0.07962  -0.0988  0.8261  0.0472  -1.4435   0.0000   0.7841
  -5.000   0.3229   0.07065   0.06686  -0.1254  0.7387  0.0536  -1.2528   0.0000   0.6502
  -4.000   0.3679   0.06339   0.05857  -0.1241  0.5913  0.0588  -1.0837   0.0000   0.5949
  -3.500   0.3803   0.05806   0.05313  -0.1286  0.5661  0.0629  -1.1670   0.0000   0.5940
  -3.000   0.4082   0.05467   0.04959  -0.1295  0.5437  0.0676  -1.0828   0.0000   0.5714
  -2.500   0.4557   0.04880   0.04354  -0.1393  0.5258  0.0748  -1.1227   0.0000   0.5581
  -1.500   0.9929   0.01859   0.00975  -0.2643  0.4818  0.0492  -1.4320   0.0000   0.5161
  -1.000   1.0680   0.01859   0.00966  -0.2682  0.4696  0.0604  -1.5041   0.0000   0.5000
  -0.500   1.1600   0.01879   0.01005  -0.2760  0.4590  0.2416  -1.5887   0.0000   0.4858
   0.000   1.2151   0.01949   0.01070  -0.2753  0.4507  0.2838  -1.6483   0.0000   0.4735
   0.500   1.2769   0.02025   0.01129  -0.2762  0.4430  0.3128  -1.7177   0.0000   0.4623
   1.000   1.3357   0.02091   0.01191  -0.2764  0.4360  0.3406  -1.7841   0.0000   0.4520
   1.500   1.3959   0.02130   0.01230  -0.2771  0.4295  0.3559  -1.8543   0.0000   0.4427
   2.000   1.4590   0.02183   0.01271  -0.2784  0.4237  0.3725  -1.9295   0.0000   0.4341
   2.500   1.5239   0.02261   0.01344  -0.2802  0.4181  0.3946  -2.0057   0.0000   0.4262
   3.000   1.5790   0.02312   0.01406  -0.2799  0.4125  0.4198  -2.0742   0.0000   0.4187
   3.500   1.6374   0.02374   0.01476  -0.2803  0.4074  0.4535  -2.1462   0.0000   0.4117
   4.000   1.6985   0.02447   0.01550  -0.2813  0.4024  0.4989  -2.2260   0.0000   0.4052
   4.500   1.7590   0.02545   0.01665  -0.2824  0.3975  0.5591  -2.3073   0.0000   0.3991
   5.000   1.8110   0.02619   0.01770  -0.2815  0.3930  0.6435  -2.3830   0.0000   0.3931
   5.500   1.8572   0.02674   0.01861  -0.2794  0.3882  0.8064  -2.4574   0.0000   0.3871
   6.000   1.9012   0.02729   0.01913  -0.2770  0.3837  1.0000  -2.5333   0.0000   0.3814
   6.500   1.9600   0.02869   0.02043  -0.2779  0.3788  1.0000  -2.6270   0.0000   0.3765
   7.000   2.0001   0.02965   0.02161  -0.2749  0.3742  1.0000  -2.7062   0.0000   0.3711
   7.500   2.0434   0.03066   0.02272  -0.2726  0.3691  1.0000  -2.7915   0.0000   0.3661
   8.000   2.0922   0.03155   0.02359  -0.2714  0.3643  1.0000  -2.8935   0.0000   0.3613
   8.500   2.1456   0.03300   0.02502  -0.2714  0.3592  1.0000  -3.0032   0.0000   0.3570
   9.000   2.1723   0.03422   0.02655  -0.2661  0.3541  1.0000  -3.0833   0.0000   0.3519
   9.500   2.2052   0.03534   0.02784  -0.2620  0.3487  1.0000  -3.1871   0.0000   0.3472
  10.000   2.2524   0.03614   0.02860  -0.2606  0.3435  1.0000  -3.3159   0.0000   0.3429
  10.500   2.2781   0.03782   0.03049  -0.2555  0.3381  1.0000  -3.4456   0.0000   0.3383
  11.000   2.2851   0.03954   0.03254  -0.2470  0.3325  1.0000  -3.5481   0.0000   0.3331
  11.500   2.3145   0.04046   0.03351  -0.2426  0.3266  1.0000  -3.6925   0.0000   0.3286
  12.000   2.3438   0.04202   0.03516  -0.2387  0.3206  1.0000  -3.8426   0.0000   0.3244
  12.500   2.3329   0.04478   0.03834  -0.2283  0.3143  1.0000  -3.9217   0.0000   0.3193
  13.000   2.3542   0.04602   0.03964  -0.2233  0.3078  1.0000  -4.0644   0.0000   0.3150
  13.500   2.3558   0.04890   0.04276  -0.2162  0.3011  1.0000  -4.1684   0.0000   0.3107
  14.000   2.3442   0.05263   0.04681  -0.2083  0.2938  1.0000  -4.2492   0.0000   0.3064
  14.500   2.3668   0.05434   0.04851  -0.2047  0.2868  1.0000  -4.4052   0.0000   0.3027
  15.000   2.3281   0.06142   0.05610  -0.1967  0.2790  1.0000  -4.4256   0.0000   0.2993
  15.500   2.3409   0.06444   0.05914  -0.1935  0.2716  1.0000  -4.5593   0.0000   0.2961
  16.000   2.2966   0.07441   0.06959  -0.1892  0.2628  1.0000  -4.5569   0.0000   0.2942
  16.500   2.2982   0.07956   0.07479  -0.1873  0.2542  1.0000  -4.6607   0.0000   0.2919
  17.000   2.2439   0.09312   0.08878  -0.1873  0.2436  1.0000  -4.6210   0.0000   0.2922


