XFLR5 v6.09.06

 Calculated polar for: S1223 MOD2015

 1 1 Reynolds number fixed          Mach number fixed         

 xtrf =   1.000 (top)        1.000 (bottom)
 Mach =   0.000     Re =     0.320 e 6     Ncrit =   9.000

  alpha     CL        CD       CDp       Cm    Top Xtr Bot Xtr   Cpmin    Chinge    XCp    
 ------- -------- --------- --------- -------- ------- ------- -------- --------- ---------
 -10.000  -0.0063   0.13375   0.13088  -0.0639  0.9678  0.0223  -1.1280   0.0000  -10.9306
  -9.500   0.0227   0.12661   0.12375  -0.0703  0.9609  0.0234  -1.2177   0.0000   3.6507
  -9.000   0.0530   0.11903   0.11619  -0.0779  0.9549  0.0237  -1.3347   0.0000   1.8441
  -8.500   0.0927   0.11253   0.10970  -0.0826  0.9478  0.0244  -1.2000   0.0000   1.2091
  -8.000   0.1228   0.10630   0.10350  -0.0869  0.9370  0.0257  -1.1798   0.0000   1.0058
  -6.500   0.1898   0.08867   0.08594  -0.0945  0.8772  0.0304  -1.2552   0.0000   0.7731
  -6.000   0.2514   0.07965   0.07677  -0.1079  0.8384  0.0327  -1.2659   0.0000   0.6975
  -5.500   0.3645   0.06952   0.06565  -0.1343  0.6943  0.0378  -1.1745   0.0000   0.6312
  -5.000   0.3545   0.06788   0.06354  -0.1279  0.6093  0.0395  -1.1757   0.0000   0.6218
  -4.500   0.3286   0.06354   0.05913  -0.1256  0.5765  0.0416  -1.4182   0.0000   0.6422
  -4.000   0.3426   0.06151   0.05692  -0.1209  0.5459  0.0426  -1.2545   0.0000   0.6107
  -3.500   0.3573   0.05769   0.05301  -0.1213  0.5253  0.0456  -1.2254   0.0000   0.5956
  -3.000   0.4765   0.03347   0.02851  -0.1726  0.5108  0.0385  -1.9417   0.0000   0.6166
  -2.500   0.8446   0.01680   0.00880  -0.2568  0.4792  0.0327  -1.8600   0.0000   0.5561
  -2.000   0.9166   0.01672   0.00852  -0.2601  0.4650  0.0351  -1.5360   0.0000   0.5347
  -1.500   0.9911   0.01662   0.00830  -0.2639  0.4530  0.0367  -1.4392   0.0000   0.5160
  -1.000   1.0627   0.01683   0.00825  -0.2670  0.4418  0.0405  -1.5106   0.0000   0.5000
  -0.500   1.1355   0.01682   0.00825  -0.2703  0.4335  0.0655  -1.5826   0.0000   0.4858
   0.000   1.2045   0.01705   0.00880  -0.2731  0.4255  0.2454  -1.6538   0.0000   0.4735
   0.500   1.2626   0.01774   0.00931  -0.2732  0.4183  0.2781  -1.7185   0.0000   0.4622
   1.000   1.3178   0.01814   0.00972  -0.2726  0.4123  0.2994  -1.7838   0.0000   0.4518
   1.500   1.3750   0.01858   0.01015  -0.2726  0.4066  0.3232  -1.8516   0.0000   0.4423
   2.000   1.4390   0.01918   0.01061  -0.2740  0.4009  0.3393  -1.9284   0.0000   0.4335
   2.500   1.4978   0.01963   0.01112  -0.2744  0.3961  0.3578  -2.0010   0.0000   0.4254
   3.000   1.5535   0.02007   0.01162  -0.2742  0.3912  0.3803  -2.0720   0.0000   0.4178
   3.500   1.6109   0.02058   0.01217  -0.2743  0.3867  0.4089  -2.1450   0.0000   0.4106
   4.000   1.6721   0.02125   0.01282  -0.2754  0.3817  0.4484  -2.2220   0.0000   0.4041
   4.500   1.7335   0.02197   0.01370  -0.2765  0.3774  0.4994  -2.3025   0.0000   0.3980
   5.000   1.7867   0.02255   0.01450  -0.2759  0.3735  0.5651  -2.3810   0.0000   0.3919
   5.500   1.8407   0.02315   0.01535  -0.2755  0.3691  0.6632  -2.4617   0.0000   0.3862
   6.500   1.9443   0.02449   0.01685  -0.2739  0.3598  1.0000  -2.6312   0.0000   0.3754
   7.000   1.9826   0.02520   0.01772  -0.2704  0.3565  1.0000  -2.7083   0.0000   0.3699
   7.500   2.0230   0.02599   0.01860  -0.2674  0.3520  1.0000  -2.7920   0.0000   0.3647
   8.000   2.0659   0.02678   0.01942  -0.2650  0.3475  1.0000  -2.8833   0.0000   0.3597
   8.500   2.1161   0.02773   0.02031  -0.2642  0.3426  1.0000  -2.9908   0.0000   0.3552
   9.000   2.1545   0.02884   0.02159  -0.2611  0.3383  1.0000  -3.0841   0.0000   0.3505
   9.500   2.1843   0.02987   0.02280  -0.2564  0.3336  1.0000  -3.1801   0.0000   0.3456
  10.000   2.2172   0.03082   0.02383  -0.2523  0.3284  1.0000  -3.2882   0.0000   0.3409
  10.500   2.2639   0.03195   0.02492  -0.2511  0.3231  1.0000  -3.4427   0.0000   0.3368
  11.000   2.2803   0.03345   0.02671  -0.2444  0.3182  1.0000  -3.5622   0.0000   0.3319
  11.500   2.2998   0.03489   0.02835  -0.2384  0.3124  1.0000  -3.6888   0.0000   0.3273
  12.000   2.3264   0.03626   0.02977  -0.2339  0.3069  1.0000  -3.8345   0.0000   0.3230
  12.500   2.3411   0.03833   0.03207  -0.2279  0.3006  1.0000  -3.9619   0.0000   0.3185
  13.000   2.3500   0.04058   0.03454  -0.2214  0.2937  1.0000  -4.0800   0.0000   0.3142
  13.500   2.3684   0.04274   0.03672  -0.2168  0.2869  1.0000  -4.2174   0.0000   0.3102
  14.000   2.3682   0.04621   0.04058  -0.2104  0.2800  1.0000  -4.3232   0.0000   0.3062
  14.500   2.3763   0.04952   0.04401  -0.2057  0.2730  1.0000  -4.4472   0.0000   0.3025
  15.000   2.3771   0.05393   0.04870  -0.2011  0.2653  1.0000  -4.5540   0.0000   0.2992
  15.500   2.3749   0.05893   0.05383  -0.1971  0.2568  1.0000  -4.6543   0.0000   0.2962
  16.000   2.3643   0.06547   0.06068  -0.1938  0.2472  1.0000  -4.7328   0.0000   0.2937
  16.500   2.3475   0.07334   0.06869  -0.1914  0.2373  1.0000  -4.7950   0.0000   0.2917
  17.000   2.3208   0.08325   0.07882  -0.1903  0.2263  1.0000  -4.8291   0.0000   0.2906


