xflr5 v6.10.03

 Calculated polar for: S1223 MOD2015

 1 1 Reynolds number fixed          Mach number fixed         

 xtrf =   0.500 (top)        0.500 (bottom)
 Mach =   0.080     Re =     0.780 e 6     Ncrit =   9.000

  alpha     CL        CD       CDp       Cm    Top Xtr Bot Xtr   Cpmin    Chinge    XCp    
 ------- -------- --------- --------- -------- ------- ------- -------- --------- ---------
  -5.000   0.5090   0.01630   0.01047  -0.2442  0.5000  0.0168  -3.8745   0.0000   0.7408
  -4.000   0.6867   0.01399   0.00746  -0.2598  0.4604  0.0184  -2.9923   0.0000   0.6347
  -3.000   0.8310   0.01343   0.00651  -0.2664  0.4319  0.0195  -2.2204   0.0000   0.5738
  -2.000   0.9649   0.01334   0.00613  -0.2704  0.4090  0.0201  -1.6324   0.0000   0.5310
  -1.000   1.0953   0.01343   0.00602  -0.2736  0.3927  0.0226  -1.5538   0.0000   0.4985
   0.000   1.2157   0.01387   0.00628  -0.2746  0.3783  0.0292  -1.6867   0.0000   0.4725
   1.000   1.3445   0.01408   0.00692  -0.2777  0.3692  0.2326  -1.8297   0.0000   0.4514
   2.000   1.4518   0.01495   0.00777  -0.2760  0.3591  0.2800  -1.9656   0.0000   0.4331
   3.000   1.5606   0.01561   0.00853  -0.2746  0.3527  0.3187  -2.1102   0.0000   0.4171
   4.000   1.6657   0.01657   0.00953  -0.2728  0.3444  0.3680  -2.2534   0.0000   0.4030
   5.000   1.7699   0.01760   0.01074  -0.2708  0.3382  0.4446  -2.3984   0.0000   0.3903
   6.000   1.8692   0.01860   0.01189  -0.2680  0.3312  0.5000  -2.5567   0.0000   0.3787
   7.000   1.9619   0.02016   0.01342  -0.2641  0.3222  0.5000  -2.7203   0.0000   0.3680
   8.000   2.0506   0.02133   0.01477  -0.2595  0.3163  0.5000  -2.8989   0.0000   0.3578
   9.000   2.1326   0.02299   0.01652  -0.2540  0.3074  0.5000  -3.0948   0.0000   0.3482
  10.000   2.2126   0.02473   0.01846  -0.2485  0.2991  0.5000  -3.3154   0.0000   0.3392
  11.000   2.2813   0.02711   0.02094  -0.2415  0.2872  0.5000  -3.5949   0.0000   0.3304
  12.000   2.3503   0.02941   0.02346  -0.2350  0.2742  0.5000  -3.9119   0.0000   0.3221
  13.000   2.4095   0.03264   0.02692  -0.2277  0.2605  0.5000  -4.2289   0.0000   0.3142
  14.000   2.4525   0.03737   0.03182  -0.2193  0.2421  0.5000  -4.5357   0.0000   0.3065
  15.000   2.4763   0.04426   0.03889  -0.2103  0.2184  0.5000  -4.8089   0.0000   0.2994
  16.000   2.4521   0.05728   0.05201  -0.2007  0.1851  0.5000  -4.9744   0.0000   0.2934
  17.000   2.3829   0.07898   0.07402  -0.1958  0.1586  0.5000  -5.0208   0.0000   0.2906


