xflr5 v6.10.03

 Calculated polar for: S1223 MOD2015

 1 1 Reynolds number fixed          Mach number fixed         

 xtrf =   0.500 (top)        0.500 (bottom)
 Mach =   0.000     Re =     0.960 e 6     Ncrit =   9.000

  alpha     CL        CD       CDp       Cm    Top Xtr Bot Xtr   Cpmin    Chinge    XCp    
 ------- -------- --------- --------- -------- ------- ------- -------- --------- ---------
  -4.000   0.7082   0.01306   0.00660  -0.2643  0.4483  0.0170  -2.9436   0.0000   0.6294
  -3.000   0.8503   0.01262   0.00581  -0.2705  0.4195  0.0178  -2.2142   0.0000   0.5714
  -2.000   0.9808   0.01259   0.00554  -0.2739  0.3985  0.0186  -1.6170   0.0000   0.5300
  -1.000   1.1036   0.01279   0.00557  -0.2754  0.3832  0.0200  -1.5568   0.0000   0.4982
   0.000   1.2241   0.01306   0.00575  -0.2765  0.3719  0.0253  -1.6902   0.0000   0.4725
   1.000   1.3511   0.01342   0.00644  -0.2794  0.3598  0.2194  -1.8306   0.0000   0.4516
   2.000   1.4609   0.01393   0.00706  -0.2783  0.3537  0.2730  -1.9694   0.0000   0.4334
   3.000   1.5671   0.01471   0.00784  -0.2766  0.3451  0.3104  -2.1118   0.0000   0.4176
   4.000   1.6722   0.01555   0.00877  -0.2748  0.3387  0.3580  -2.2542   0.0000   0.4036
   6.000   1.8726   0.01760   0.01106  -0.2697  0.3238  0.5000  -2.5535   0.0000   0.3794
   7.000   1.9675   0.01859   0.01217  -0.2663  0.3184  0.5000  -2.7195   0.0000   0.3687
   8.000   2.0566   0.01980   0.01346  -0.2619  0.3111  0.5000  -2.8982   0.0000   0.3586
   9.000   2.1404   0.02138   0.01513  -0.2569  0.3025  0.5000  -3.0956   0.0000   0.3491
  10.000   2.2230   0.02280   0.01670  -0.2519  0.2935  0.5000  -3.3212   0.0000   0.3402
  11.000   2.2989   0.02466   0.01870  -0.2461  0.2813  0.5000  -3.6180   0.0000   0.3316
  12.000   2.3665   0.02708   0.02125  -0.2394  0.2683  0.5000  -3.9334   0.0000   0.3233
  13.000   2.4264   0.03012   0.02444  -0.2321  0.2522  0.5000  -4.2515   0.0000   0.3154
  14.000   2.4696   0.03462   0.02902  -0.2234  0.2282  0.5000  -4.5603   0.0000   0.3076
  15.000   2.4762   0.04283   0.03721  -0.2122  0.1912  0.5000  -4.7963   0.0000   0.3002
  16.000   2.4525   0.05551   0.05000  -0.2020  0.1606  0.5000  -4.9613   0.0000   0.2940
  17.000   2.3959   0.07510   0.06989  -0.1965  0.1397  0.5000  -5.0403   0.0000   0.2906


