xflr5 v6.10.03

 Calculated polar for: S1223 MOD2015

 1 1 Reynolds number fixed          Mach number fixed         

 xtrf =   0.500 (top)        0.500 (bottom)
 Mach =   0.000     Re =     0.700 e 6     Ncrit =   9.000

  alpha     CL        CD       CDp       Cm    Top Xtr Bot Xtr   Cpmin    Chinge    XCp    
 ------- -------- --------- --------- -------- ------- ------- -------- --------- ---------
  -5.000   0.5025   0.01663   0.01076  -0.2423  0.5000  0.0177  -3.8037   0.0000   0.7434
  -4.000   0.6758   0.01443   0.00783  -0.2569  0.4704  0.0193  -2.9705   0.0000   0.6365
  -3.000   0.8204   0.01383   0.00677  -0.2638  0.4390  0.0203  -2.2032   0.0000   0.5748
  -2.000   0.9603   0.01356   0.00622  -0.2694  0.4155  0.0215  -1.6133   0.0000   0.5314
  -1.000   1.0862   0.01379   0.00622  -0.2718  0.3978  0.0238  -1.5407   0.0000   0.4989
   0.000   1.2092   0.01409   0.00640  -0.2734  0.3844  0.0361  -1.6748   0.0000   0.4728
   1.000   1.3357   0.01442   0.00717  -0.2762  0.3742  0.2454  -1.8148   0.0000   0.4516
   2.000   1.4432   0.01520   0.00791  -0.2747  0.3646  0.2870  -1.9506   0.0000   0.4333
   3.000   1.5509   0.01605   0.00879  -0.2733  0.3568  0.3250  -2.0924   0.0000   0.4173
   4.000   1.6573   0.01685   0.00970  -0.2718  0.3495  0.3766  -2.2357   0.0000   0.4033
   5.000   1.7617   0.01812   0.01106  -0.2702  0.3408  0.4573  -2.3802   0.0000   0.3907
   6.000   1.8594   0.01905   0.01218  -0.2671  0.3351  0.5000  -2.5355   0.0000   0.3791
   7.000   1.9512   0.02031   0.01347  -0.2632  0.3277  0.5000  -2.6986   0.0000   0.3683
   8.000   2.0400   0.02184   0.01509  -0.2589  0.3198  0.5000  -2.8748   0.0000   0.3582
   9.000   2.1226   0.02328   0.01670  -0.2537  0.3119  0.5000  -3.0702   0.0000   0.3487
  10.000   2.1991   0.02530   0.01884  -0.2478  0.3027  0.5000  -3.2846   0.0000   0.3396
  11.000   2.2706   0.02724   0.02101  -0.2413  0.2928  0.5000  -3.5661   0.0000   0.3309
  12.000   2.3352   0.02977   0.02375  -0.2344  0.2793  0.5000  -3.8720   0.0000   0.3226
  13.000   2.3917   0.03308   0.02727  -0.2269  0.2662  0.5000  -4.1802   0.0000   0.3146
  14.000   2.4376   0.03744   0.03185  -0.2190  0.2495  0.5000  -4.4887   0.0000   0.3070
  15.000   2.4643   0.04390   0.03850  -0.2104  0.2291  0.5000  -4.7644   0.0000   0.2999
  16.000   2.4557   0.05490   0.04966  -0.2013  0.2002  0.5000  -4.9627   0.0000   0.2937
  17.000   2.3963   0.07451   0.06953  -0.1954  0.1716  0.5000  -5.0363   0.0000   0.2901


