xflr5 v6.10.03

 Calculated polar for: S1223 MOD2015 FLAP

 1 1 Reynolds number fixed          Mach number fixed         

 xtrf =   0.500 (top)        0.500 (bottom)
 Mach =   0.080     Re =     0.320 e 6     Ncrit =   9.000

  alpha     CL        CD       CDp       Cm    Top Xtr Bot Xtr   Cpmin    Chinge    XCp    
 ------- -------- --------- --------- -------- ------- ------- -------- --------- ---------
  -5.000   0.9285   0.05123   0.04522  -0.2493  0.5000  0.0373  -1.8014   0.0090   0.5225
  -4.000   1.1067   0.05431   0.04809  -0.2606  0.4857  0.0424  -1.4855   0.0100   0.4868
  -3.000   1.4644   0.06829   0.06171  -0.3046  0.4455  0.2608  -1.8132   0.0127   0.4569
  -2.000   1.5594   0.06870   0.06198  -0.3011  0.4289  0.3027  -1.9356   0.0126   0.4397
  -1.000   1.6753   0.07069   0.06386  -0.3012  0.4151  0.3284  -2.0833   0.0129   0.4242
   0.000   1.7968   0.07204   0.06498  -0.3021  0.4030  0.3543  -2.2466   0.0131   0.4104
   1.000   1.8997   0.07397   0.06700  -0.3002  0.3928  0.3851  -2.3954   0.0134   0.3981
   2.000   2.0063   0.07435   0.06733  -0.2987  0.3825  0.4260  -2.5524   0.0135   0.3869
   3.000   2.0893   0.07592   0.06918  -0.2938  0.3743  0.4661  -2.6997   0.0136   0.3764
   4.000   2.1743   0.07645   0.06976  -0.2893  0.3648  0.5000  -2.8623   0.0137   0.3665
   5.000   2.2605   0.07912   0.07270  -0.2854  0.3555  0.5000  -3.0443   0.0140   0.3574
   6.000   2.3338   0.08092   0.07461  -0.2797  0.3456  0.5000  -3.2368   0.0141   0.3485
   7.000   2.3897   0.08386   0.07790  -0.2719  0.3355  0.5000  -3.4322   0.0143   0.3399
   8.000   2.4424   0.08667   0.08084  -0.2639  0.3245  0.5000  -3.7030   0.0145   0.3315
   9.000   2.4622   0.09259   0.08724  -0.2526  0.3125  0.5000  -3.9402   0.0148   0.3232
  10.000   2.4783   0.09890   0.09386  -0.2419  0.2990  0.5000  -4.1838   0.0151   0.3152
  11.000   2.4886   0.10605   0.10128  -0.2322  0.2848  0.5000  -4.4228   0.0153   0.3078
  12.000   2.4783   0.11615   0.11186  -0.2233  0.2700  0.5000  -4.6218   0.0157   0.3012
  13.000   2.4579   0.12776   0.12385  -0.2171  0.2522  0.5000  -4.7905   0.0160   0.2959
  14.000   2.4160   0.14249   0.13907  -0.2150  0.2310  0.5000  -4.8914   0.0165   0.2927
  15.000   2.3656   0.15838   0.15524  -0.2175  0.2071  0.5000  -4.9550   0.0170   0.2916
  16.000   2.3110   0.17492   0.17203  -0.2239  0.1819  0.5000  -4.9864   0.0175   0.2924
  17.000   2.2688   0.18943   0.18659  -0.2313  0.1576  0.5000  -5.0423   0.0179   0.2932


