xflr5 v6.10.03

 Calculated polar for: S1223 MOD2015 FLAP

 1 1 Reynolds number fixed          Mach number fixed         

 xtrf =   0.500 (top)        0.500 (bottom)
 Mach =   0.000     Re =     0.300 e 6     Ncrit =   9.000

  alpha     CL        CD       CDp       Cm    Top Xtr Bot Xtr   Cpmin    Chinge    XCp    
 ------- -------- --------- --------- -------- ------- ------- -------- --------- ---------
  -5.000   0.2622   0.08143   0.07741  -0.0668  0.5000  0.0456  -0.9971  -0.0002   0.5059
  -4.000   0.3100   0.07262   0.06865  -0.0715  0.5000  0.0503  -1.0008   0.0002   0.4794
  -3.000   1.4566   0.06752   0.06085  -0.3034  0.4515  0.2652  -1.8003   0.0125   0.4572
  -2.000   1.5452   0.06771   0.06101  -0.2989  0.4352  0.3064  -1.9155   0.0124   0.4401
  -1.000   1.6691   0.06964   0.06269  -0.3004  0.4203  0.3333  -2.0695   0.0127   0.4244
   0.000   1.7886   0.07156   0.06440  -0.3011  0.4080  0.3592  -2.2304   0.0130   0.4107
   1.000   1.8926   0.07272   0.06568  -0.2994  0.3975  0.3893  -2.3781   0.0132   0.3984
   2.000   1.9909   0.07391   0.06688  -0.2969  0.3873  0.4290  -2.5267   0.0134   0.3871
   3.000   2.0852   0.07449   0.06762  -0.2938  0.3787  0.4708  -2.6836   0.0134   0.3767
   4.000   2.1645   0.07592   0.06923  -0.2886  0.3691  0.5000  -2.8389   0.0136   0.3669
   5.000   2.2621   0.07756   0.07097  -0.2866  0.3595  0.5000  -3.0333   0.0138   0.3579
   6.000   2.3256   0.08018   0.07386  -0.2796  0.3495  0.5000  -3.2123   0.0140   0.3490
   7.000   2.3936   0.08197   0.07583  -0.2736  0.3394  0.5000  -3.4245   0.0141   0.3406
   8.000   2.4316   0.08607   0.08027  -0.2638  0.3284  0.5000  -3.6718   0.0144   0.3321
   9.000   2.4630   0.09067   0.08523  -0.2539  0.3164  0.5000  -3.9283   0.0146   0.3239
  10.000   2.4886   0.09564   0.09038  -0.2441  0.3027  0.5000  -4.1892   0.0149   0.3159
  11.000   2.4797   0.10478   0.10002  -0.2324  0.2888  0.5000  -4.3878   0.0152   0.3083
  12.000   2.4711   0.11442   0.11016  -0.2234  0.2740  0.5000  -4.5879   0.0156   0.3017
  13.000   2.4516   0.12584   0.12200  -0.2169  0.2569  0.5000  -4.7570   0.0159   0.2962
  14.000   2.4199   0.13898   0.13543  -0.2138  0.2367  0.5000  -4.8857   0.0163   0.2923
  15.000   2.3673   0.15521   0.15209  -0.2158  0.2134  0.5000  -4.9454   0.0168   0.2911
  16.000   2.3192   0.17062   0.16762  -0.2209  0.1885  0.5000  -5.0008   0.0173   0.2910
  17.000   2.2686   0.18656   0.18378  -0.2291  0.1634  0.5000  -5.0303   0.0178   0.2925


