XFLR5 v6.09.06

 Calculated polar for: S1223 MOD2015

 1 1 Reynolds number fixed          Mach number fixed         

 xtrf =   1.000 (top)        1.000 (bottom)
 Mach =   0.080     Re =     0.420 e 6     Ncrit =   9.000

  alpha     CL        CD       CDp       Cm    Top Xtr Bot Xtr   Cpmin    Chinge    XCp    
 ------- -------- --------- --------- -------- ------- ------- -------- --------- ---------
 -10.000   0.0346   0.12832   0.12573  -0.0748  0.9617  0.0192  -1.1283   0.0000   2.6203
  -9.500   0.0675   0.12056   0.11796  -0.0832  0.9577  0.0200  -1.2743   0.0000   1.5877
  -9.000   0.0865   0.11362   0.11105  -0.0885  0.9490  0.0201  -1.4461   0.0000   1.3542
  -8.500   0.1211   0.10770   0.10515  -0.0904  0.9398  0.0205  -1.2661   0.0000   1.0506
  -8.000   0.1489   0.10209   0.09957  -0.0934  0.9280  0.0212  -1.2102   0.0000   0.9187
  -7.500   0.1704   0.09654   0.09405  -0.0955  0.9113  0.0223  -1.2201   0.0000   0.8440
  -7.000   0.1771   0.08960   0.08712  -0.0992  0.8872  0.0237  -1.5177   0.0000   0.8405
  -6.500   0.2661   0.08089   0.07822  -0.1145  0.8462  0.0254  -1.2649   0.0000   0.7000
  -6.000   0.3535   0.07143   0.06771  -0.1363  0.6848  0.0282  -1.3007   0.0000   0.6505
  -5.500   0.3484   0.06999   0.06582  -0.1299  0.5975  0.0295  -1.2506   0.0000   0.6359
  -5.000   0.3156   0.06600   0.06178  -0.1254  0.5680  0.0317  -1.5432   0.0000   0.6597
  -4.500   0.3282   0.06438   0.06003  -0.1205  0.5360  0.0325  -1.3472   0.0000   0.6269
  -4.000   0.3356   0.06124   0.05683  -0.1183  0.5154  0.0341  -1.2985   0.0000   0.6104
  -3.500   0.4271   0.03244   0.02774  -0.1732  0.5056  0.0321  -2.3005   0.0000   0.6622
  -3.000   0.4611   0.03368   0.02898  -0.1679  0.4871  0.0341  -1.9537   0.0000   0.6187
  -2.500   0.8565   0.01571   0.00799  -0.2594  0.4577  0.0273  -1.8913   0.0000   0.5550
  -2.000   0.9306   0.01555   0.00768  -0.2632  0.4447  0.0292  -1.5897   0.0000   0.5337
  -1.500   1.0003   0.01554   0.00755  -0.2659  0.4338  0.0307  -1.4554   0.0000   0.5155
  -1.000   1.0680   0.01566   0.00748  -0.2680  0.4242  0.0329  -1.5251   0.0000   0.4997
  -0.500   1.1338   0.01587   0.00759  -0.2697  0.4164  0.0387  -1.5934   0.0000   0.4856
   0.000   1.2098   0.01579   0.00788  -0.2740  0.4090  0.2009  -1.6703   0.0000   0.4732
   0.500   1.2645   0.01635   0.00836  -0.2733  0.4019  0.2547  -1.7327   0.0000   0.4619
   1.000   1.3212   0.01681   0.00882  -0.2730  0.3966  0.2804  -1.7997   0.0000   0.4515
   1.500   1.3764   0.01721   0.00921  -0.2724  0.3917  0.2986  -1.8664   0.0000   0.4419
   2.000   1.4324   0.01763   0.00962  -0.2721  0.3869  0.3185  -1.9375   0.0000   0.4330
   2.500   1.4917   0.01819   0.01010  -0.2726  0.3811  0.3353  -2.0122   0.0000   0.4248
   3.000   1.5495   0.01867   0.01063  -0.2727  0.3772  0.3566  -2.0855   0.0000   0.4172
   3.500   1.6040   0.01911   0.01116  -0.2721  0.3732  0.3823  -2.1569   0.0000   0.4099
   4.000   1.6580   0.01959   0.01172  -0.2715  0.3688  0.4147  -2.2288   0.0000   0.4031
   4.500   1.7129   0.02017   0.01236  -0.2711  0.3647  0.4585  -2.3034   0.0000   0.3967
   5.000   1.7776   0.02100   0.01322  -0.2729  0.3598  0.5179  -2.3909   0.0000   0.3909
   5.500   1.8272   0.02151   0.01400  -0.2715  0.3568  0.5926  -2.4685   0.0000   0.3850
   6.500   1.9152   0.02237   0.01542  -0.2664  0.3487  1.0000  -2.6214   0.0000   0.3735
   7.000   1.9638   0.02316   0.01616  -0.2649  0.3447  1.0000  -2.7088   0.0000   0.3683
   7.500   2.0172   0.02415   0.01712  -0.2646  0.3400  1.0000  -2.8060   0.0000   0.3635
   8.000   2.0561   0.02492   0.01803  -0.2613  0.3364  1.0000  -2.8910   0.0000   0.3584
   8.500   2.0953   0.02578   0.01898  -0.2581  0.3320  1.0000  -2.9863   0.0000   0.3535
   9.000   2.1349   0.02668   0.01993  -0.2551  0.3276  1.0000  -3.0831   0.0000   0.3487
   9.500   2.1825   0.02784   0.02104  -0.2539  0.3220  1.0000  -3.1978   0.0000   0.3444
  10.000   2.2104   0.02894   0.02237  -0.2489  0.3182  1.0000  -3.2992   0.0000   0.3396
  10.500   2.2408   0.03012   0.02370  -0.2445  0.3133  1.0000  -3.4212   0.0000   0.3349
  11.000   2.2698   0.03139   0.02503  -0.2402  0.3079  1.0000  -3.5637   0.0000   0.3304
  11.500   2.3004   0.03294   0.02669  -0.2363  0.3024  1.0000  -3.7098   0.0000   0.3262
  12.000   2.3200   0.03465   0.02863  -0.2308  0.2965  1.0000  -3.8425   0.0000   0.3217
  12.500   2.3389   0.03657   0.03063  -0.2256  0.2897  1.0000  -3.9800   0.0000   0.3175
  13.000   2.3574   0.03885   0.03311  -0.2207  0.2830  1.0000  -4.1163   0.0000   0.3134
  13.500   2.3741   0.04134   0.03578  -0.2161  0.2759  1.0000  -4.2506   0.0000   0.3095
  14.000   2.3878   0.04438   0.03894  -0.2115  0.2691  1.0000  -4.3870   0.0000   0.3057
  14.500   2.3994   0.04777   0.04256  -0.2073  0.2609  1.0000  -4.5191   0.0000   0.3022
  15.000   2.4039   0.05212   0.04705  -0.2031  0.2524  1.0000  -4.6364   0.0000   0.2989
  15.500   2.4027   0.05742   0.05252  -0.1993  0.2424  1.0000  -4.7404   0.0000   0.2960
  16.000   2.3964   0.06378   0.05910  -0.1962  0.2323  1.0000  -4.8310   0.0000   0.2934
  16.500   2.3762   0.07239   0.06787  -0.1939  0.2218  1.0000  -4.8870   0.0000   0.2916
  17.000   2.3438   0.08345   0.07910  -0.1930  0.2103  1.0000  -4.9086   0.0000   0.2907


