xflr5 v6.10.03

 Calculated polar for: S1223 MOD2015

 1 1 Reynolds number fixed          Mach number fixed         

 xtrf =   0.500 (top)        0.500 (bottom)
 Mach =   0.000     Re =     0.520 e 6     Ncrit =   9.000

  alpha     CL        CD       CDp       Cm    Top Xtr Bot Xtr   Cpmin    Chinge    XCp    
 ------- -------- --------- --------- -------- ------- ------- -------- --------- ---------
  -5.000   0.3289   0.06695   0.06250  -0.1233  0.5000  0.0257  -1.3605   0.0000   0.6365
  -4.000   0.6441   0.01608   0.00941  -0.2497  0.4949  0.0222  -2.9533   0.0000   0.6442
  -3.000   0.7970   0.01500   0.00766  -0.2586  0.4585  0.0235  -2.2233   0.0000   0.5778
  -2.000   0.9421   0.01459   0.00698  -0.2655  0.4327  0.0255  -1.5964   0.0000   0.5327
  -1.000   1.0739   0.01474   0.00685  -0.2692  0.4136  0.0286  -1.5277   0.0000   0.4994
   0.000   1.2106   0.01497   0.00720  -0.2742  0.3980  0.1627  -1.6699   0.0000   0.4732
   1.000   1.3218   0.01564   0.00801  -0.2734  0.3871  0.2685  -1.7992   0.0000   0.4517
   2.000   1.4325   0.01657   0.00886  -0.2725  0.3772  0.3047  -1.9358   0.0000   0.4333
   3.000   1.5411   0.01734   0.00968  -0.2713  0.3689  0.3418  -2.0779   0.0000   0.4172
   4.000   1.6527   0.01851   0.01086  -0.2711  0.3594  0.3982  -2.2233   0.0000   0.4033
   5.000   1.7577   0.01944   0.01207  -0.2695  0.3533  0.4895  -2.3705   0.0000   0.3907
   6.000   1.8556   0.02065   0.01329  -0.2666  0.3452  0.5000  -2.5260   0.0000   0.3791
   7.000   1.9515   0.02210   0.01482  -0.2635  0.3376  0.5000  -2.6919   0.0000   0.3685
   8.000   2.0369   0.02351   0.01637  -0.2585  0.3297  0.5000  -2.8654   0.0000   0.3583
   9.000   2.1230   0.02538   0.01834  -0.2541  0.3208  0.5000  -3.0638   0.0000   0.3489
  10.000   2.1936   0.02722   0.02046  -0.2470  0.3122  0.5000  -3.2716   0.0000   0.3396
  11.000   2.2602   0.02967   0.02308  -0.2399  0.3020  0.5000  -3.5431   0.0000   0.3308
  12.000   2.3133   0.03254   0.02621  -0.2311  0.2898  0.5000  -3.8264   0.0000   0.3222
  13.000   2.3632   0.03611   0.03011  -0.2229  0.2765  0.5000  -4.1207   0.0000   0.3141
  14.000   2.4041   0.04088   0.03518  -0.2148  0.2623  0.5000  -4.4130   0.0000   0.3065
  15.000   2.4271   0.04776   0.04233  -0.2064  0.2442  0.5000  -4.6777   0.0000   0.2996
  16.000   2.4222   0.05867   0.05351  -0.1986  0.2239  0.5000  -4.8798   0.0000   0.2936
  17.000   2.3867   0.07533   0.07056  -0.1938  0.2008  0.5000  -5.0054   0.0000   0.2898


