xflr5 v6.10.03

 Calculated polar for: S1223 MOD2015

 1 1 Reynolds number fixed          Mach number fixed         

 xtrf =   0.500 (top)        0.500 (bottom)
 Mach =   0.000     Re =     0.760 e 6     Ncrit =   9.000

  alpha     CL        CD       CDp       Cm    Top Xtr Bot Xtr   Cpmin    Chinge    XCp    
 ------- -------- --------- --------- -------- ------- ------- -------- --------- ---------
  -5.000   0.5232   0.01562   0.00963  -0.2474  0.5000  0.0172  -3.8313   0.0000   0.7337
  -4.000   0.6854   0.01402   0.00745  -0.2591  0.4634  0.0186  -2.9631   0.0000   0.6344
  -3.000   0.8281   0.01348   0.00652  -0.2655  0.4347  0.0197  -2.2015   0.0000   0.5739
  -2.000   0.9645   0.01330   0.00606  -0.2703  0.4114  0.0205  -1.6193   0.0000   0.5310
  -1.000   1.0915   0.01346   0.00601  -0.2729  0.3947  0.0229  -1.5455   0.0000   0.4987
   0.000   1.2116   0.01392   0.00628  -0.2739  0.3794  0.0306  -1.6775   0.0000   0.4728
   1.000   1.3398   0.01409   0.00691  -0.2770  0.3710  0.2364  -1.8193   0.0000   0.4516
   2.000   1.4466   0.01501   0.00778  -0.2754  0.3599  0.2824  -1.9541   0.0000   0.4333
   3.000   1.5546   0.01564   0.00850  -0.2740  0.3541  0.3203  -2.0972   0.0000   0.4174
   4.000   1.6603   0.01651   0.00944  -0.2724  0.3464  0.3712  -2.2402   0.0000   0.4033
   5.000   1.7637   0.01762   0.01069  -0.2705  0.3392  0.4488  -2.3836   0.0000   0.3907
   6.000   1.8624   0.01857   0.01182  -0.2677  0.3326  0.5000  -2.5402   0.0000   0.3791
   7.000   1.9542   0.02002   0.01324  -0.2638  0.3239  0.5000  -2.7025   0.0000   0.3683
   8.000   2.0430   0.02128   0.01466  -0.2594  0.3177  0.5000  -2.8796   0.0000   0.3583
   9.000   2.1256   0.02279   0.01629  -0.2542  0.3092  0.5000  -3.0752   0.0000   0.3487
  10.000   2.2042   0.02461   0.01828  -0.2486  0.3005  0.5000  -3.2926   0.0000   0.3397
  11.000   2.2745   0.02673   0.02054  -0.2420  0.2895  0.5000  -3.5738   0.0000   0.3310
  12.000   2.3426   0.02905   0.02307  -0.2355  0.2763  0.5000  -3.8868   0.0000   0.3227
  13.000   2.4018   0.03218   0.02642  -0.2284  0.2630  0.5000  -4.2007   0.0000   0.3148
  14.000   2.4472   0.03656   0.03097  -0.2203  0.2452  0.5000  -4.5101   0.0000   0.3072
  15.000   2.4705   0.04329   0.03786  -0.2112  0.2223  0.5000  -4.7794   0.0000   0.3000
  16.000   2.4545   0.05508   0.04976  -0.2015  0.1892  0.5000  -4.9619   0.0000   0.2938
  17.000   2.3919   0.07529   0.07024  -0.1957  0.1617  0.5000  -5.0269   0.0000   0.2904


