xflr5 v6.10.03

 Calculated polar for: S1223 MOD2015 FLAP

 1 1 Reynolds number fixed          Mach number fixed         

 xtrf =   0.500 (top)        0.500 (bottom)
 Mach =   0.080     Re =     0.240 e 6     Ncrit =   9.000

  alpha     CL        CD       CDp       Cm    Top Xtr Bot Xtr   Cpmin    Chinge    XCp    
 ------- -------- --------- --------- -------- ------- ------- -------- --------- ---------
  -4.000   1.0956   0.05329   0.04672  -0.2590  0.5000  0.0511  -1.4750   0.0097   0.4877
  -3.000   0.5673   0.05122   0.04667  -0.1295  0.5000  0.0593  -1.2389   0.0030   0.4769
  -1.000   1.6413   0.06588   0.05880  -0.2948  0.4358  0.3426  -2.0430   0.0121   0.4243
   0.000   1.7758   0.06761   0.06032  -0.2980  0.4229  0.3701  -2.2151   0.0125   0.4103
   1.000   1.8956   0.07006   0.06273  -0.2988  0.4106  0.4046  -2.3778   0.0128   0.3980
   2.000   1.9980   0.07049   0.06325  -0.2968  0.4004  0.4424  -2.5289   0.0128   0.3868
   3.000   2.0783   0.07134   0.06433  -0.2913  0.3908  0.4771  -2.6721   0.0129   0.3763
   4.000   2.1945   0.07307   0.06608  -0.2919  0.3805  0.5000  -2.8687   0.0131   0.3669
   5.000   2.2734   0.07658   0.06988  -0.2870  0.3698  0.5000  -3.0433   0.0135   0.3577
   6.000   2.3539   0.07836   0.07182  -0.2825  0.3596  0.5000  -3.2447   0.0137   0.3490
   7.000   2.3981   0.08219   0.07604  -0.2730  0.3485  0.5000  -3.4280   0.0140   0.3403
   8.000   2.4430   0.08583   0.08001  -0.2642  0.3371  0.5000  -3.6848   0.0142   0.3319
   9.000   2.4847   0.08915   0.08352  -0.2553  0.3245  0.5000  -3.9636   0.0145   0.3238
  10.000   2.4701   0.09772   0.09271  -0.2413  0.3108  0.5000  -4.1452   0.0149   0.3156
  11.000   2.4632   0.10610   0.10151  -0.2303  0.2963  0.5000  -4.3437   0.0153   0.3081
  12.000   2.4521   0.11577   0.11158  -0.2215  0.2811  0.5000  -4.5390   0.0156   0.3016
  13.000   2.4245   0.12830   0.12457  -0.2155  0.2645  0.5000  -4.6868   0.0160   0.2965
  14.000   2.3718   0.14491   0.14169  -0.2145  0.2442  0.5000  -4.7547   0.0165   0.2941
  15.000   2.3347   0.15933   0.15632  -0.2169  0.2213  0.5000  -4.8475   0.0170   0.2926
  16.000   2.2750   0.17715   0.17448  -0.2246  0.1956  0.5000  -4.8550   0.0175   0.2942
  17.000   2.2517   0.18890   0.18625  -0.2302  0.1714  0.5000  -4.9647   0.0179   0.2936


