xflr5 v6.10.03

 Calculated polar for: S1223 MOD2015

 1 1 Reynolds number fixed          Mach number fixed         

 xtrf =   0.500 (top)        0.500 (bottom)
 Mach =   0.080     Re =     1.000 e 6     Ncrit =   9.000

  alpha     CL        CD       CDp       Cm    Top Xtr Bot Xtr   Cpmin    Chinge    XCp    
 ------- -------- --------- --------- -------- ------- ------- -------- --------- ---------
  -5.000   0.2694   0.05471   0.05095  -0.1270  0.4863  0.0137  -2.6371   0.0000   0.7378
  -4.000   0.7086   0.01308   0.00667  -0.2647  0.4437  0.0168  -2.9706   0.0000   0.6298
  -3.000   0.8541   0.01253   0.00578  -0.2716  0.4172  0.0175  -2.2379   0.0000   0.5712
  -2.000   0.9854   0.01250   0.00550  -0.2749  0.3965  0.0182  -1.6310   0.0000   0.5298
  -1.000   1.1082   0.01277   0.00557  -0.2764  0.3794  0.0197  -1.5656   0.0000   0.4980
   0.000   1.2289   0.01301   0.00574  -0.2773  0.3695  0.0243  -1.7001   0.0000   0.4723
   1.000   1.3570   0.01332   0.00639  -0.2803  0.3588  0.2144  -1.8421   0.0000   0.4513
   2.000   1.4674   0.01386   0.00704  -0.2792  0.3517  0.2708  -1.9822   0.0000   0.4332
   3.000   1.5730   0.01476   0.00791  -0.2772  0.3420  0.3074  -2.1245   0.0000   0.4173
   4.000   1.6797   0.01546   0.00875  -0.2755  0.3373  0.3547  -2.2697   0.0000   0.4033
   5.000   1.7827   0.01631   0.00974  -0.2733  0.3309  0.4231  -2.4148   0.0000   0.3906
   6.000   1.8807   0.01760   0.01113  -0.2703  0.3220  0.5000  -2.5709   0.0000   0.3790
   7.000   1.9766   0.01852   0.01216  -0.2668  0.3168  0.5000  -2.7394   0.0000   0.3683
   8.000   2.0651   0.01984   0.01355  -0.2622  0.3090  0.5000  -2.9185   0.0000   0.3582
   9.000   2.1509   0.02132   0.01514  -0.2573  0.3011  0.5000  -3.1198   0.0000   0.3487
  10.000   2.2323   0.02290   0.01684  -0.2519  0.2913  0.5000  -3.3453   0.0000   0.3397
  11.000   2.3099   0.02472   0.01881  -0.2462  0.2788  0.5000  -3.6468   0.0000   0.3311
  12.000   2.3784   0.02716   0.02139  -0.2395  0.2658  0.5000  -3.9669   0.0000   0.3228
  13.000   2.4380   0.03033   0.02469  -0.2320  0.2486  0.5000  -4.2874   0.0000   0.3148
  14.000   2.4763   0.03534   0.02976  -0.2226  0.2229  0.5000  -4.5898   0.0000   0.3070
  15.000   2.4783   0.04419   0.03859  -0.2111  0.1847  0.5000  -4.8179   0.0000   0.2996
  16.000   2.4501   0.05774   0.05228  -0.2012  0.1557  0.5000  -4.9741   0.0000   0.2937
  17.000   2.3881   0.07866   0.07354  -0.1966  0.1362  0.5000  -5.0376   0.0000   0.2908


