xflr5 v6.10.03

 Calculated polar for: S1223 MOD2015

 1 1 Reynolds number fixed          Mach number fixed         

 xtrf =   0.500 (top)        0.500 (bottom)
 Mach =   0.080     Re =     0.980 e 6     Ncrit =   9.000

  alpha     CL        CD       CDp       Cm    Top Xtr Bot Xtr   Cpmin    Chinge    XCp    
 ------- -------- --------- --------- -------- ------- ------- -------- --------- ---------
  -5.000   0.5555   0.01409   0.00821  -0.2558  0.4813  0.0158  -3.8575   0.0000   0.7210
  -4.000   0.7056   0.01318   0.00677  -0.2640  0.4454  0.0168  -2.9758   0.0000   0.6304
  -3.000   0.8525   0.01260   0.00583  -0.2712  0.4180  0.0176  -2.2358   0.0000   0.5714
  -2.000   0.9838   0.01257   0.00555  -0.2746  0.3972  0.0183  -1.6307   0.0000   0.5299
  -1.000   1.1069   0.01282   0.00561  -0.2761  0.3806  0.0198  -1.5646   0.0000   0.4981
   0.000   1.2279   0.01307   0.00578  -0.2771  0.3704  0.0247  -1.6991   0.0000   0.4723
   1.000   1.3558   0.01340   0.00645  -0.2800  0.3592  0.2161  -1.8409   0.0000   0.4514
   2.000   1.4662   0.01393   0.00710  -0.2789  0.3524  0.2716  -1.9809   0.0000   0.4332
   3.000   1.5722   0.01479   0.00793  -0.2770  0.3432  0.3085  -2.1237   0.0000   0.4173
   4.000   1.6784   0.01556   0.00882  -0.2753  0.3378  0.3557  -2.2682   0.0000   0.4032
   5.000   1.7815   0.01640   0.00981  -0.2730  0.3316  0.4246  -2.4135   0.0000   0.3906
   6.000   1.8793   0.01773   0.01123  -0.2700  0.3223  0.5000  -2.5693   0.0000   0.3790
   7.000   1.9751   0.01865   0.01226  -0.2665  0.3174  0.5000  -2.7376   0.0000   0.3683
   8.000   2.0640   0.01994   0.01363  -0.2620  0.3097  0.5000  -2.9170   0.0000   0.3581
   9.000   2.1490   0.02147   0.01527  -0.2570  0.3015  0.5000  -3.1173   0.0000   0.3486
  10.000   2.2309   0.02302   0.01695  -0.2517  0.2920  0.5000  -3.3432   0.0000   0.3396
  11.000   2.3078   0.02488   0.01896  -0.2459  0.2796  0.5000  -3.6430   0.0000   0.3310
  12.000   2.3760   0.02735   0.02157  -0.2391  0.2666  0.5000  -3.9620   0.0000   0.3227
  13.000   2.4357   0.03051   0.02487  -0.2316  0.2499  0.5000  -4.2825   0.0000   0.3147
  14.000   2.4741   0.03552   0.02994  -0.2223  0.2248  0.5000  -4.5848   0.0000   0.3069
  15.000   2.4792   0.04408   0.03850  -0.2111  0.1877  0.5000  -4.8197   0.0000   0.2996
  16.000   2.4501   0.05773   0.05228  -0.2012  0.1576  0.5000  -4.9737   0.0000   0.2937
  17.000   2.3843   0.07920   0.07409  -0.1966  0.1376  0.5000  -5.0276   0.0000   0.2909


