xflr5 v6.10.03

 Calculated polar for: S1223 MOD2015 FLAP

 1 1 Reynolds number fixed          Mach number fixed         

 xtrf =   0.500 (top)        0.500 (bottom)
 Mach =   0.000     Re =     0.560 e 6     Ncrit =   9.000

  alpha     CL        CD       CDp       Cm    Top Xtr Bot Xtr   Cpmin    Chinge    XCp    
 ------- -------- --------- --------- -------- ------- ------- -------- --------- ---------
  -5.000   0.9475   0.05175   0.04631  -0.2514  0.4809  0.0277  -1.8133   0.0093   0.5194
  -4.000   1.1973   0.05963   0.05374  -0.2772  0.4406  0.0316  -1.5573   0.0112   0.4828
  -3.000   1.4835   0.07210   0.06606  -0.3083  0.4108  0.2241  -1.8341   0.0134   0.4566
  -2.000   1.5946   0.07431   0.06816  -0.3079  0.3961  0.2727  -1.9726   0.0136   0.4396
  -1.000   1.6030   0.07017   0.06457  -0.2694  0.3781  0.3022  -1.9933   0.0129   0.4110
   0.000   1.6868   0.07097   0.06538  -0.2638  0.3682  0.3245  -2.1220   0.0131   0.3971
   1.000   1.7706   0.07151   0.06599  -0.2588  0.3593  0.3540  -2.2514   0.0132   0.3848
   2.000   1.8439   0.07275   0.06740  -0.2527  0.3515  0.3888  -2.3788   0.0133   0.3735
   3.000   1.9166   0.07299   0.06768  -0.2467  0.3417  0.4272  -2.5186   0.0134   0.3630
   4.000   1.9679   0.07498   0.06999  -0.2383  0.3345  0.4643  -2.6481   0.0135   0.3530
   5.000   2.0160   0.07624   0.07138  -0.2298  0.3251  0.4986  -2.7911   0.0136   0.3435
   6.000   2.0535   0.07961   0.07507  -0.2208  0.3160  0.5000  -2.9358   0.0138   0.3345
   7.000   2.0859   0.08242   0.07804  -0.2119  0.3052  0.5000  -3.1128   0.0139   0.3259
   8.000   2.0910   0.08791   0.08395  -0.2016  0.2942  0.5000  -3.3050   0.0141   0.3179
   9.000   2.0809   0.09457   0.09093  -0.1919  0.2795  0.5000  -3.4767   0.0143   0.3107
  10.000   2.0554   0.10248   0.09919  -0.1836  0.2640  0.5000  -3.6173   0.0145   0.3046
  11.000   2.0076   0.11265   0.10975  -0.1775  0.2457  0.5000  -3.7079   0.0147   0.3003
  12.000   1.9264   0.12702   0.12444  -0.1750  0.2220  0.5000  -3.7072   0.0150   0.2991
  13.000   1.8313   0.14462   0.14237  -0.1764  0.1954  0.5000  -3.6436   0.0154   0.3007
  14.000   1.7494   0.16224   0.16019  -0.1798  0.1695  0.5000  -3.5860   0.0156   0.3034
  15.000   1.6889   0.17789   0.17591  -0.1835  0.1451  0.5000  -3.5708   0.0159   0.3055
  16.000   1.6411   0.19239   0.19060  -0.1873  0.1246  0.5000  -3.5821   0.0161   0.3072
  17.000   1.6007   0.20607   0.20430  -0.1912  0.1053  0.5000  -3.6148   0.0163   0.3087


