xflr5 v6.10.03

 Calculated polar for: S1223 MOD2015 FLAP

 1 1 Reynolds number fixed          Mach number fixed         

 xtrf =   0.500 (top)        0.500 (bottom)
 Mach =   0.080     Re =     0.300 e 6     Ncrit =   9.000

  alpha     CL        CD       CDp       Cm    Top Xtr Bot Xtr   Cpmin    Chinge    XCp    
 ------- -------- --------- --------- -------- ------- ------- -------- --------- ---------
  -5.000   0.2638   0.08154   0.07751  -0.0668  0.5000  0.0456  -0.9958  -0.0002   0.5046
  -4.000   0.3112   0.07277   0.06881  -0.0714  0.5000  0.0502  -1.0055   0.0002   0.4780
  -3.000   0.5654   0.05067   0.04640  -0.1284  0.4984  0.0507  -1.2439   0.0030   0.4756
  -2.000   1.5489   0.06780   0.06110  -0.2993  0.4341  0.3056  -1.9244   0.0125   0.4399
  -1.000   1.6731   0.06977   0.06284  -0.3007  0.4194  0.3327  -2.0792   0.0128   0.4242
   0.000   1.7954   0.07157   0.06440  -0.3018  0.4069  0.3588  -2.2435   0.0131   0.4104
   1.000   1.8988   0.07296   0.06593  -0.2999  0.3967  0.3887  -2.3914   0.0133   0.3981
   2.000   1.9994   0.07404   0.06699  -0.2975  0.3864  0.4285  -2.5433   0.0134   0.3868
   3.000   2.0921   0.07488   0.06805  -0.2941  0.3779  0.4702  -2.6994   0.0135   0.3764
   4.000   2.1715   0.07616   0.06949  -0.2888  0.3683  0.5000  -2.8559   0.0136   0.3665
   5.000   2.2675   0.07813   0.07159  -0.2864  0.3586  0.5000  -3.0495   0.0138   0.3575
   6.000   2.3331   0.08065   0.07435  -0.2795  0.3485  0.5000  -3.2323   0.0141   0.3485
   7.000   2.3973   0.08286   0.07679  -0.2728  0.3384  0.5000  -3.4399   0.0142   0.3400
   8.000   2.4380   0.08677   0.08100  -0.2633  0.3273  0.5000  -3.6916   0.0145   0.3315
   9.000   2.4651   0.09188   0.08650  -0.2529  0.3152  0.5000  -3.9416   0.0147   0.3233
  10.000   2.4867   0.09740   0.09226  -0.2427  0.3016  0.5000  -4.1964   0.0150   0.3153
  11.000   2.4844   0.10590   0.10115  -0.2318  0.2873  0.5000  -4.4096   0.0153   0.3078
  12.000   2.4708   0.11634   0.11212  -0.2228  0.2723  0.5000  -4.6000   0.0157   0.3013
  13.000   2.4491   0.12818   0.12437  -0.2167  0.2549  0.5000  -4.7644   0.0160   0.2960
  14.000   2.4133   0.14200   0.13853  -0.2145  0.2343  0.5000  -4.8815   0.0165   0.2926
  15.000   2.3576   0.15886   0.15580  -0.2175  0.2102  0.5000  -4.9276   0.0170   0.2919
  16.000   2.3077   0.17471   0.17183  -0.2235  0.1854  0.5000  -4.9731   0.0175   0.2924
  17.000   2.2662   0.18917   0.18635  -0.2309  0.1605  0.5000  -5.0302   0.0179   0.2932


