xflr5 v6.10.03

 Calculated polar for: S1223 MOD2015 FLAP

 1 1 Reynolds number fixed          Mach number fixed         

 xtrf =   0.500 (top)        0.500 (bottom)
 Mach =   0.080     Re =     0.460 e 6     Ncrit =   9.000

  alpha     CL        CD       CDp       Cm    Top Xtr Bot Xtr   Cpmin    Chinge    XCp    
 ------- -------- --------- --------- -------- ------- ------- -------- --------- ---------
  -5.000   0.2616   0.07874   0.07522  -0.0692  0.5000  0.0326  -1.1910  -0.0001   0.5160
  -4.000   0.3192   0.06935   0.06584  -0.0763  0.4977  0.0373  -1.1221   0.0004   0.4883
  -3.000   0.5374   0.05161   0.04776  -0.1227  0.4668  0.0438  -1.2321   0.0029   0.4766
  -2.000   1.5882   0.07313   0.06671  -0.3065  0.4044  0.2828  -1.9691   0.0133   0.4395
  -1.000   1.6915   0.07489   0.06846  -0.3045  0.3939  0.3092  -2.1074   0.0135   0.4243
   0.000   1.7996   0.07609   0.06949  -0.3033  0.3824  0.3321  -2.2599   0.0137   0.4106
   1.000   1.8972   0.07791   0.07141  -0.3005  0.3741  0.3621  -2.4058   0.0139   0.3983
   2.000   1.9948   0.07880   0.07226  -0.2977  0.3644  0.4007  -2.5536   0.0140   0.3869
   3.000   2.0828   0.08011   0.07378  -0.2936  0.3572  0.4419  -2.7062   0.0141   0.3764
   4.000   2.1595   0.08183   0.07565  -0.2880  0.3486  0.4837  -2.8589   0.0142   0.3665
   5.000   2.2443   0.08300   0.07693  -0.2837  0.3398  0.5000  -3.0389   0.0144   0.3572
   6.000   2.3095   0.08571   0.07986  -0.2769  0.3309  0.5000  -3.2190   0.0145   0.3482
   7.000   2.3756   0.08757   0.08184  -0.2704  0.3208  0.5000  -3.4261   0.0146   0.3396
   8.000   2.4164   0.09200   0.08660  -0.2611  0.3107  0.5000  -3.6721   0.0148   0.3311
   9.000   2.4537   0.09653   0.09138  -0.2520  0.2987  0.5000  -3.9415   0.0150   0.3230
  10.000   2.4749   0.10283   0.09791  -0.2421  0.2848  0.5000  -4.1949   0.0153   0.3151
  11.000   2.4917   0.10974   0.10520  -0.2333  0.2712  0.5000  -4.4481   0.0155   0.3079
  12.000   2.4952   0.11820   0.11400  -0.2254  0.2545  0.5000  -4.6787   0.0158   0.3013
  13.000   2.4797   0.12894   0.12503  -0.2193  0.2350  0.5000  -4.8607   0.0161   0.2959
  14.000   2.4487   0.14171   0.13817  -0.2167  0.2126  0.5000  -4.9928   0.0165   0.2922
  15.000   2.3903   0.15827   0.15496  -0.2191  0.1878  0.5000  -5.0412   0.0170   0.2913
  16.000   2.3320   0.17505   0.17197  -0.2253  0.1633  0.5000  -5.0654   0.0175   0.2921
  17.000   2.2806   0.19093   0.18800  -0.2335  0.1407  0.5000  -5.0969   0.0180   0.2937


