XFLR5 v6.09.06

 Calculated polar for: S1223 MOD2015

 1 1 Reynolds number fixed          Mach number fixed         

 xtrf =   1.000 (top)        1.000 (bottom)
 Mach =   0.080     Re =     0.440 e 6     Ncrit =   9.000

  alpha     CL        CD       CDp       Cm    Top Xtr Bot Xtr   Cpmin    Chinge    XCp    
 ------- -------- --------- --------- -------- ------- ------- -------- --------- ---------
  -9.500   0.0785   0.12016   0.11762  -0.0839  0.9576  0.0193  -1.1393   0.0000   1.4115
  -8.500   0.1203   0.10632   0.10382  -0.0933  0.9388  0.0202  -1.4247   0.0000   1.0802
  -8.000   0.1511   0.10097   0.09850  -0.0949  0.9269  0.0206  -1.2747   0.0000   0.9189
  -7.500   0.1736   0.09584   0.09339  -0.0964  0.9098  0.0214  -1.2336   0.0000   0.8387
  -7.000   0.1925   0.08999   0.08754  -0.0988  0.8828  0.0231  -1.3118   0.0000   0.7910
  -6.500   0.2991   0.07806   0.07530  -0.1239  0.8324  0.0250  -1.2701   0.0000   0.6826
  -6.000   0.3409   0.07045   0.06674  -0.1368  0.6763  0.0276  -1.4720   0.0000   0.6668
  -5.500   0.3421   0.06944   0.06528  -0.1297  0.5908  0.0283  -1.3270   0.0000   0.6425
  -5.000   0.3417   0.06729   0.06298  -0.1253  0.5530  0.0300  -1.2819   0.0000   0.6279
  -4.500   0.3180   0.06267   0.05838  -0.1219  0.5341  0.0319  -1.5134   0.0000   0.6438
  -4.000   0.3321   0.06047   0.05609  -0.1187  0.5118  0.0328  -1.3582   0.0000   0.6157
  -3.500   0.7108   0.01622   0.00904  -0.2525  0.4859  0.0249  -2.6079   0.0000   0.6101
  -3.000   0.7875   0.01569   0.00826  -0.2569  0.4687  0.0259  -2.2420   0.0000   0.5796
  -2.500   0.8608   0.01545   0.00781  -0.2604  0.4545  0.0267  -1.8844   0.0000   0.5546
  -2.000   0.9331   0.01542   0.00755  -0.2638  0.4410  0.0282  -1.5989   0.0000   0.5335
  -1.500   1.0027   0.01533   0.00740  -0.2664  0.4309  0.0299  -1.4578   0.0000   0.5154
  -0.500   1.1342   0.01566   0.00745  -0.2698  0.4140  0.0369  -1.5947   0.0000   0.4856
   0.000   1.2099   0.01561   0.00772  -0.2740  0.4064  0.1918  -1.6716   0.0000   0.4732
   0.500   1.2670   0.01618   0.00826  -0.2738  0.3990  0.2509  -1.7354   0.0000   0.4619
   1.000   1.3207   0.01657   0.00866  -0.2729  0.3945  0.2770  -1.8004   0.0000   0.4515
   1.500   1.3768   0.01694   0.00904  -0.2725  0.3895  0.2956  -1.8680   0.0000   0.4419
   2.000   1.4325   0.01741   0.00946  -0.2721  0.3845  0.3155  -1.9390   0.0000   0.4330
   2.500   1.4929   0.01800   0.00999  -0.2728  0.3788  0.3322  -2.0141   0.0000   0.4248
   3.000   1.5476   0.01838   0.01045  -0.2722  0.3753  0.3529  -2.0854   0.0000   0.4171
   3.500   1.6023   0.01883   0.01097  -0.2717  0.3712  0.3783  -2.1571   0.0000   0.4098
   4.000   1.6559   0.01932   0.01151  -0.2710  0.3668  0.4101  -2.2290   0.0000   0.4030
   4.500   1.7132   0.01998   0.01220  -0.2712  0.3624  0.4536  -2.3051   0.0000   0.3967
   5.000   1.7717   0.02066   0.01299  -0.2716  0.3586  0.5101  -2.3870   0.0000   0.3907
   5.500   1.8229   0.02119   0.01376  -0.2706  0.3551  0.5823  -2.4660   0.0000   0.3848
   6.000   1.8750   0.02177   0.01458  -0.2697  0.3509  0.6927  -2.5487   0.0000   0.3793
   7.000   1.9663   0.02297   0.01599  -0.2654  0.3423  1.0000  -2.7126   0.0000   0.3684
   7.500   2.0121   0.02379   0.01689  -0.2635  0.3387  1.0000  -2.8020   0.0000   0.3633
   8.000   2.0525   0.02458   0.01778  -0.2605  0.3347  1.0000  -2.8883   0.0000   0.3582
   8.500   2.0928   0.02542   0.01869  -0.2576  0.3303  1.0000  -2.9850   0.0000   0.3533
   9.000   2.1340   0.02636   0.01964  -0.2549  0.3259  1.0000  -3.0837   0.0000   0.3486
   9.500   2.1767   0.02750   0.02083  -0.2527  0.3209  1.0000  -3.1913   0.0000   0.3442
  10.000   2.2078   0.02858   0.02210  -0.2483  0.3167  1.0000  -3.2971   0.0000   0.3394
  10.500   2.2391   0.02973   0.02337  -0.2442  0.3117  1.0000  -3.4199   0.0000   0.3348
  11.000   2.2711   0.03107   0.02471  -0.2403  0.3060  1.0000  -3.5672   0.0000   0.3305
  11.500   2.2981   0.03260   0.02645  -0.2359  0.3011  1.0000  -3.7071   0.0000   0.3261
  12.000   2.3198   0.03425   0.02828  -0.2307  0.2948  1.0000  -3.8438   0.0000   0.3217
  12.500   2.3410   0.03623   0.03027  -0.2259  0.2877  1.0000  -3.9854   0.0000   0.3175
  13.000   2.3598   0.03839   0.03271  -0.2211  0.2813  1.0000  -4.1222   0.0000   0.3134
  13.500   2.3773   0.04088   0.03533  -0.2165  0.2743  1.0000  -4.2586   0.0000   0.3095
  14.000   2.3927   0.04381   0.03844  -0.2122  0.2673  1.0000  -4.3984   0.0000   0.3058
  14.500   2.4039   0.04724   0.04204  -0.2079  0.2590  1.0000  -4.5303   0.0000   0.3023
  15.000   2.4107   0.05141   0.04637  -0.2038  0.2502  1.0000  -4.6525   0.0000   0.2990
  15.500   2.4066   0.05700   0.05208  -0.1998  0.2402  1.0000  -4.7507   0.0000   0.2960
  16.000   2.4028   0.06309   0.05840  -0.1968  0.2299  1.0000  -4.8472   0.0000   0.2934
  16.500   2.3849   0.07140   0.06690  -0.1944  0.2193  1.0000  -4.9088   0.0000   0.2915
  17.000   2.3514   0.08257   0.07824  -0.1933  0.2080  1.0000  -4.9284   0.0000   0.2906


