xflr5 v6.10.03

 Calculated polar for: S1223 MOD2015 FLAP

 1 1 Reynolds number fixed          Mach number fixed         

 xtrf =   0.500 (top)        0.500 (bottom)
 Mach =   0.000     Re =     0.580 e 6     Ncrit =   9.000

  alpha     CL        CD       CDp       Cm    Top Xtr Bot Xtr   Cpmin    Chinge    XCp    
 ------- -------- --------- --------- -------- ------- ------- -------- --------- ---------
  -5.000   0.9488   0.05183   0.04642  -0.2516  0.4780  0.0273  -1.8118   0.0093   0.5192
  -4.000   1.2072   0.06013   0.05426  -0.2791  0.4377  0.0312  -1.5654   0.0114   0.4824
  -3.000   1.4849   0.07220   0.06619  -0.3086  0.4084  0.2213  -1.8358   0.0134   0.4566
  -2.000   1.5960   0.07441   0.06829  -0.3082  0.3943  0.2703  -1.9745   0.0136   0.4396
  -1.000   1.6979   0.07596   0.06972  -0.3061  0.3821  0.2983  -2.1111   0.0137   0.4245
   0.000   1.7966   0.07769   0.07146  -0.3036  0.3732  0.3200  -2.2552   0.0139   0.4110
   1.000   1.8947   0.07885   0.07253  -0.3010  0.3625  0.3500  -2.4015   0.0141   0.3987
   3.000   2.0716   0.08205   0.07597  -0.2932  0.3484  0.4279  -2.6920   0.0143   0.3769
   4.000   2.1555   0.08310   0.07712  -0.2887  0.3400  0.4705  -2.8501   0.0144   0.3670
   5.000   2.2289   0.08498   0.07921  -0.2830  0.3321  0.5000  -3.0164   0.0145   0.3576
   6.000   2.3046   0.08634   0.08059  -0.2777  0.3222  0.5000  -3.2076   0.0146   0.3488
   7.000   2.3608   0.08949   0.08404  -0.2701  0.3141  0.5000  -3.3998   0.0148   0.3401
   8.000   2.4111   0.09271   0.08737  -0.2621  0.3029  0.5000  -3.6597   0.0149   0.3317
   9.000   2.4469   0.09767   0.09265  -0.2529  0.2907  0.5000  -3.9260   0.0151   0.3236
  10.000   2.4800   0.10260   0.09786  -0.2442  0.2781  0.5000  -4.1998   0.0152   0.3158
  11.000   2.5046   0.10837   0.10388  -0.2358  0.2639  0.5000  -4.4711   0.0154   0.3085
  12.000   2.5148   0.11577   0.11155  -0.2278  0.2462  0.5000  -4.7173   0.0156   0.3017
  13.000   2.5054   0.12546   0.12149  -0.2211  0.2248  0.5000  -4.9156   0.0159   0.2959
  14.000   2.4654   0.13907   0.13532  -0.2174  0.1977  0.5000  -5.0305   0.0164   0.2921
  15.000   2.3999   0.15639   0.15286  -0.2194  0.1706  0.5000  -5.0639   0.0169   0.2913
  16.000   2.3301   0.17473   0.17138  -0.2261  0.1459  0.5000  -5.0574   0.0175   0.2927
  17.000   2.2783   0.19061   0.18743  -0.2341  0.1238  0.5000  -5.0895   0.0180   0.2941


