xflr5 v6.10.03

 Calculated polar for: S1223 MOD2015 FLAP

 1 1 Reynolds number fixed          Mach number fixed         

 xtrf =   0.500 (top)        0.500 (bottom)
 Mach =   0.080     Re =     0.740 e 6     Ncrit =   9.000

  alpha     CL        CD       CDp       Cm    Top Xtr Bot Xtr   Cpmin    Chinge    XCp    
 ------- -------- --------- --------- -------- ------- ------- -------- --------- ---------
  -5.000   0.2587   0.07548   0.07238  -0.0720  0.4936  0.0244  -1.4730  -0.0000   0.5305
  -4.000   0.3132   0.06848   0.06528  -0.0757  0.4652  0.0263  -1.2416   0.0005   0.4910
  -2.000   1.6119   0.07516   0.06930  -0.3107  0.3811  0.2605  -1.9985   0.0138   0.4392
  -1.000   1.7131   0.07687   0.07095  -0.3085  0.3715  0.2877  -2.1362   0.0139   0.4243
   0.000   1.8112   0.07848   0.07249  -0.3057  0.3612  0.3086  -2.2804   0.0141   0.4108
   1.000   1.9061   0.08009   0.07415  -0.3026  0.3539  0.3366  -2.4262   0.0142   0.3985
   2.000   1.9975   0.08168   0.07576  -0.2989  0.3454  0.3730  -2.5695   0.0144   0.3872
   3.000   2.0855   0.08310   0.07731  -0.2949  0.3386  0.4138  -2.7201   0.0145   0.3767
   4.000   2.1667   0.08472   0.07906  -0.2899  0.3312  0.4548  -2.8775   0.0146   0.3667
   5.000   2.2432   0.08615   0.08056  -0.2844  0.3218  0.4964  -3.0477   0.0147   0.3573
   6.000   2.3124   0.08844   0.08307  -0.2781  0.3146  0.5000  -3.2329   0.0148   0.3484
   7.000   2.3704   0.09123   0.08592  -0.2705  0.3036  0.5000  -3.4284   0.0149   0.3397
   8.000   2.4255   0.09436   0.08934  -0.2630  0.2945  0.5000  -3.6986   0.0150   0.3313
   9.000   2.4671   0.09860   0.09376  -0.2543  0.2811  0.5000  -3.9795   0.0152   0.3232
  10.000   2.5009   0.10346   0.09879  -0.2455  0.2676  0.5000  -4.2589   0.0153   0.3154
  11.000   2.5272   0.10908   0.10463  -0.2371  0.2511  0.5000  -4.5395   0.0155   0.3081
  12.000   2.5353   0.11671   0.11247  -0.2289  0.2277  0.5000  -4.7855   0.0157   0.3013
  13.000   2.5051   0.12891   0.12478  -0.2218  0.1955  0.5000  -4.9384   0.0161   0.2960
  14.000   2.4471   0.14496   0.14101  -0.2196  0.1654  0.5000  -5.0034   0.0166   0.2933
  15.000   2.3797   0.16278   0.15907  -0.2233  0.1422  0.5000  -5.0228   0.0172   0.2933
  16.000   2.3203   0.17985   0.17637  -0.2300  0.1226  0.5000  -5.0416   0.0177   0.2945
  17.000   2.2697   0.19576   0.19243  -0.2385  0.1051  0.5000  -5.0732   0.0182   0.2962


