XFLR5 v6.09.06

 Calculated polar for: S1223 MOD2015

 1 1 Reynolds number fixed          Mach number fixed         

 xtrf =   1.000 (top)        1.000 (bottom)
 Mach =   0.000     Re =     0.300 e 6     Ncrit =   9.000

  alpha     CL        CD       CDp       Cm    Top Xtr Bot Xtr   Cpmin    Chinge    XCp    
 ------- -------- --------- --------- -------- ------- ------- -------- --------- ---------
  -9.500   0.0100   0.12760   0.12468  -0.0681  0.9622  0.0238  -1.2778   0.0000   7.7031
  -9.000   0.0526   0.12072   0.11780  -0.0747  0.9575  0.0246  -1.1735   0.0000   1.7953
  -8.500   0.0841   0.11421   0.11132  -0.0797  0.9484  0.0258  -1.1600   0.0000   1.2723
  -8.000   0.0997   0.10715   0.10427  -0.0881  0.9369  0.0274  -1.4649   0.0000   1.1944
  -7.500   0.1404   0.10081   0.09796  -0.0892  0.9249  0.0283  -1.2418   0.0000   0.9251
  -7.000   0.1688   0.09491   0.09209  -0.0926  0.9088  0.0303  -1.2217   0.0000   0.8292
  -6.500   0.1739   0.08914   0.08636  -0.0941  0.8800  0.0319  -1.3898   0.0000   0.8186
  -6.000   0.2298   0.08224   0.07936  -0.1013  0.8443  0.0342  -1.2306   0.0000   0.7103
  -5.500   0.3575   0.06994   0.06627  -0.1339  0.7323  0.0407  -1.2028   0.0000   0.6374
  -5.000   0.3379   0.06726   0.06305  -0.1290  0.6333  0.0417  -1.3315   0.0000   0.6434
  -4.500   0.3434   0.06549   0.06099  -0.1229  0.5805  0.0428  -1.2086   0.0000   0.6175
  -4.000   0.3487   0.06235   0.05770  -0.1208  0.5519  0.0453  -1.1881   0.0000   0.6040
  -3.500   0.4633   0.03106   0.02601  -0.1847  0.5386  0.0368  -2.2693   0.0000   0.6548
  -3.000   0.4854   0.03333   0.02830  -0.1755  0.5163  0.0427  -1.9095   0.0000   0.6159
  -2.500   0.5025   0.03811   0.03309  -0.1645  0.4980  0.0629  -1.4348   0.0000   0.5797
  -2.000   0.9137   0.01700   0.00873  -0.2594  0.4700  0.0363  -1.5306   0.0000   0.5348
  -1.500   0.9905   0.01696   0.00854  -0.2638  0.4576  0.0385  -1.4374   0.0000   0.5161
  -1.000   1.0614   0.01703   0.00843  -0.2667  0.4466  0.0425  -1.5082   0.0000   0.5001
  -0.500   1.1489   0.01693   0.00855  -0.2736  0.4371  0.1733  -1.5904   0.0000   0.4859
   0.000   1.2048   0.01741   0.00906  -0.2731  0.4296  0.2524  -1.6518   0.0000   0.4735
   0.500   1.2631   0.01804   0.00955  -0.2733  0.4222  0.2834  -1.7174   0.0000   0.4622
   1.000   1.3219   0.01855   0.01004  -0.2735  0.4160  0.3059  -1.7849   0.0000   0.4519
   1.500   1.3785   0.01900   0.01049  -0.2733  0.4103  0.3288  -1.8521   0.0000   0.4423
   2.000   1.4382   0.01945   0.01085  -0.2739  0.4050  0.3439  -1.9255   0.0000   0.4335
   2.500   1.5068   0.02018   0.01145  -0.2764  0.3990  0.3644  -2.0062   0.0000   0.4256
   3.000   1.5606   0.02057   0.01197  -0.2757  0.3946  0.3869  -2.0751   0.0000   0.4180
   3.500   1.6176   0.02107   0.01259  -0.2758  0.3900  0.4161  -2.1471   0.0000   0.4109
   4.000   1.6743   0.02162   0.01319  -0.2759  0.3852  0.4555  -2.2207   0.0000   0.4042
   4.500   1.7442   0.02255   0.01410  -0.2789  0.3799  0.5114  -2.3097   0.0000   0.3983
   5.000   1.7977   0.02316   0.01497  -0.2783  0.3765  0.5799  -2.3884   0.0000   0.3923
   5.500   1.8494   0.02375   0.01588  -0.2774  0.3721  0.6857  -2.4666   0.0000   0.3865
   6.500   1.9372   0.02476   0.01711  -0.2724  0.3635  1.0000  -2.6220   0.0000   0.3752
   7.000   1.9961   0.02591   0.01822  -0.2733  0.3588  1.0000  -2.7199   0.0000   0.3704
   7.500   2.0323   0.02669   0.01917  -0.2694  0.3547  1.0000  -2.7987   0.0000   0.3651
   8.000   2.0718   0.02753   0.02010  -0.2664  0.3501  1.0000  -2.8868   0.0000   0.3600
   8.500   2.1149   0.02833   0.02090  -0.2640  0.3455  1.0000  -2.9863   0.0000   0.3552
   9.000   2.1692   0.02957   0.02211  -0.2642  0.3403  1.0000  -3.0985   0.0000   0.3511
   9.500   2.1924   0.03062   0.02342  -0.2581  0.3361  1.0000  -3.1880   0.0000   0.3460
  10.000   2.2207   0.03165   0.02461  -0.2532  0.3308  1.0000  -3.2895   0.0000   0.3411
  10.500   2.2572   0.03263   0.02563  -0.2500  0.3259  1.0000  -3.4289   0.0000   0.3367
  11.000   2.2904   0.03408   0.02719  -0.2464  0.3204  1.0000  -3.5766   0.0000   0.3324
  11.500   2.3029   0.03569   0.02908  -0.2392  0.3147  1.0000  -3.6910   0.0000   0.3275
  12.000   2.3258   0.03709   0.03059  -0.2340  0.3091  1.0000  -3.8298   0.0000   0.3231
  12.500   2.3489   0.03883   0.03242  -0.2293  0.3028  1.0000  -3.9736   0.0000   0.3188
  13.000   2.3504   0.04137   0.03528  -0.2216  0.2961  1.0000  -4.0774   0.0000   0.3143
  13.500   2.3636   0.04357   0.03758  -0.2162  0.2895  1.0000  -4.2049   0.0000   0.3101
  14.000   2.3666   0.04691   0.04120  -0.2102  0.2824  1.0000  -4.3171   0.0000   0.3062
  14.500   2.3700   0.05050   0.04501  -0.2050  0.2752  1.0000  -4.4305   0.0000   0.3025
  15.000   2.3728   0.05464   0.04933  -0.2005  0.2679  1.0000  -4.5422   0.0000   0.2991
  15.500   2.3665   0.06002   0.05496  -0.1963  0.2593  1.0000  -4.6325   0.0000   0.2962
  16.000   2.3561   0.06647   0.06164  -0.1930  0.2503  1.0000  -4.7115   0.0000   0.2937
  16.500   2.3399   0.07415   0.06944  -0.1906  0.2403  1.0000  -4.7754   0.0000   0.2917
  17.000   2.3105   0.08451   0.08012  -0.1898  0.2293  1.0000  -4.8011   0.0000   0.2908


