xflr5 v6.10.03

 Calculated polar for: S1223 MOD2015 FLAP

 1 1 Reynolds number fixed          Mach number fixed         

 xtrf =   0.500 (top)        0.500 (bottom)
 Mach =   0.000     Re =     0.340 e 6     Ncrit =   9.000

  alpha     CL        CD       CDp       Cm    Top Xtr Bot Xtr   Cpmin    Chinge    XCp    
 ------- -------- --------- --------- -------- ------- ------- -------- --------- ---------
  -5.000   0.9398   0.05159   0.04559  -0.2511  0.5000  0.0362  -1.7689   0.0091   0.5211
  -4.000   1.1113   0.05476   0.04857  -0.2614  0.4818  0.0410  -1.4854   0.0101   0.4865
  -3.000   1.4637   0.06901   0.06252  -0.3047  0.4424  0.2586  -1.8085   0.0128   0.4570
  -2.000   1.5647   0.06938   0.06268  -0.3023  0.4254  0.3008  -1.9359   0.0127   0.4398
  -1.000   1.6746   0.07140   0.06461  -0.3016  0.4121  0.3254  -2.0785   0.0130   0.4245
   0.000   1.7899   0.07278   0.06585  -0.3016  0.4006  0.3504  -2.2352   0.0132   0.4108
   1.000   1.8937   0.07456   0.06763  -0.2999  0.3902  0.3822  -2.3849   0.0135   0.3985
   2.000   1.9942   0.07510   0.06821  -0.2977  0.3805  0.4219  -2.5343   0.0135   0.3872
   3.000   2.0794   0.07637   0.06969  -0.2932  0.3720  0.4618  -2.6834   0.0137   0.3767
   4.000   2.1721   0.07626   0.06958  -0.2900  0.3622  0.5000  -2.8526   0.0137   0.3670
   5.000   2.2492   0.07945   0.07308  -0.2849  0.3535  0.5000  -3.0238   0.0140   0.3577
   6.000   2.3309   0.08038   0.07401  -0.2805  0.3434  0.5000  -3.2252   0.0141   0.3490
   7.000   2.3776   0.08408   0.07813  -0.2715  0.3339  0.5000  -3.4077   0.0143   0.3403
   8.000   2.4421   0.08570   0.07980  -0.2652  0.3225  0.5000  -3.6964   0.0144   0.3321
   9.000   2.4561   0.09221   0.08684  -0.2531  0.3113  0.5000  -3.9228   0.0148   0.3237
  10.000   2.4728   0.09850   0.09345  -0.2426  0.2978  0.5000  -4.1651   0.0150   0.3158
  11.000   2.4853   0.10538   0.10061  -0.2330  0.2841  0.5000  -4.4075   0.0153   0.3083
  12.000   2.4822   0.11448   0.11010  -0.2242  0.2693  0.5000  -4.6211   0.0156   0.3016
  13.000   2.4643   0.12561   0.12163  -0.2176  0.2515  0.5000  -4.7958   0.0159   0.2960
  14.000   2.4288   0.13926   0.13576  -0.2146  0.2307  0.5000  -4.9146   0.0163   0.2923
  15.000   2.3790   0.15486   0.15164  -0.2162  0.2070  0.5000  -4.9857   0.0168   0.2908
  16.000   2.3234   0.17138   0.16842  -0.2219  0.1818  0.5000  -5.0182   0.0173   0.2913
  17.000   2.2757   0.18663   0.18375  -0.2294  0.1577  0.5000  -5.0613   0.0178   0.2923


