xflr5 v6.10.03

 Calculated polar for: S1223 MOD2015

 1 1 Reynolds number fixed          Mach number fixed         

 xtrf =   0.500 (top)        0.500 (bottom)
 Mach =   0.000     Re =     0.940 e 6     Ncrit =   9.000

  alpha     CL        CD       CDp       Cm    Top Xtr Bot Xtr   Cpmin    Chinge    XCp    
 ------- -------- --------- --------- -------- ------- ------- -------- --------- ---------
  -5.000   0.5532   0.01419   0.00826  -0.2547  0.4864  0.0161  -3.8184   0.0000   0.7209
  -4.000   0.7085   0.01306   0.00659  -0.2644  0.4496  0.0172  -2.9438   0.0000   0.6294
  -3.000   0.8484   0.01270   0.00587  -0.2701  0.4207  0.0180  -2.2119   0.0000   0.5716
  -2.000   0.9791   0.01268   0.00559  -0.2735  0.3991  0.0187  -1.6172   0.0000   0.5301
  -1.000   1.1024   0.01284   0.00561  -0.2752  0.3845  0.0202  -1.5558   0.0000   0.4982
   0.000   1.2230   0.01313   0.00579  -0.2762  0.3727  0.0256  -1.6891   0.0000   0.4726
   1.000   1.3500   0.01349   0.00648  -0.2792  0.3605  0.2210  -1.8296   0.0000   0.4516
   2.000   1.4595   0.01402   0.00712  -0.2780  0.3543  0.2737  -1.9680   0.0000   0.4334
   3.000   1.5662   0.01477   0.00788  -0.2764  0.3461  0.3114  -2.1108   0.0000   0.4176
   4.000   1.6708   0.01566   0.00885  -0.2745  0.3391  0.3591  -2.2527   0.0000   0.4035
   5.000   1.7742   0.01646   0.00982  -0.2725  0.3334  0.4298  -2.3972   0.0000   0.3909
   6.000   1.8717   0.01764   0.01109  -0.2695  0.3249  0.5000  -2.5525   0.0000   0.3794
   7.000   1.9660   0.01873   0.01227  -0.2660  0.3189  0.5000  -2.7177   0.0000   0.3686
   8.000   2.0553   0.01992   0.01356  -0.2617  0.3117  0.5000  -2.8964   0.0000   0.3586
   9.000   2.1385   0.02155   0.01527  -0.2566  0.3029  0.5000  -3.0931   0.0000   0.3491
  10.000   2.2214   0.02294   0.01683  -0.2516  0.2942  0.5000  -3.3188   0.0000   0.3401
  11.000   2.2966   0.02485   0.01887  -0.2457  0.2821  0.5000  -3.6138   0.0000   0.3315
  12.000   2.3636   0.02730   0.02145  -0.2389  0.2689  0.5000  -3.9280   0.0000   0.3233
  13.000   2.4235   0.03035   0.02465  -0.2317  0.2532  0.5000  -4.2455   0.0000   0.3153
  14.000   2.4689   0.03468   0.02910  -0.2233  0.2306  0.5000  -4.5585   0.0000   0.3076
  15.000   2.4748   0.04295   0.03734  -0.2121  0.1940  0.5000  -4.7930   0.0000   0.3002
  16.000   2.4506   0.05572   0.05021  -0.2019  0.1625  0.5000  -4.9567   0.0000   0.2940
  17.000   2.3968   0.07493   0.06974  -0.1964  0.1415  0.5000  -5.0424   0.0000   0.2905


