xflr5 v6.10.03

 Calculated polar for: S1223 MOD2015 FLAP

 1 1 Reynolds number fixed          Mach number fixed         

 xtrf =   0.500 (top)        0.500 (bottom)
 Mach =   0.080     Re =     1.000 e 6     Ncrit =   9.000

  alpha     CL        CD       CDp       Cm    Top Xtr Bot Xtr   Cpmin    Chinge    XCp    
 ------- -------- --------- --------- -------- ------- ------- -------- --------- ---------
  -5.000   1.0433   0.05532   0.05019  -0.2691  0.4342  0.0220  -1.7070   0.0104   0.5118
  -4.000   1.2795   0.06319   0.05765  -0.2920  0.4023  0.0240  -1.6326   0.0121   0.4794
  -3.000   1.5071   0.07244   0.06685  -0.3122  0.3807  0.1552  -1.8672   0.0136   0.4559
  -2.000   1.6263   0.07530   0.06971  -0.3132  0.3685  0.2467  -2.0158   0.0139   0.4390
  -1.000   1.7279   0.07704   0.07141  -0.3110  0.3592  0.2749  -2.1535   0.0141   0.4242
   0.000   1.8252   0.07859   0.07295  -0.3082  0.3511  0.2958  -2.2987   0.0142   0.4108
   1.000   1.9193   0.08024   0.07457  -0.3049  0.3416  0.3252  -2.4438   0.0144   0.3986
   2.000   2.0107   0.08166   0.07609  -0.3013  0.3366  0.3585  -2.5885   0.0145   0.3874
   3.000   2.0974   0.08327   0.07775  -0.2970  0.3286  0.3993  -2.7377   0.0146   0.3769
   4.000   2.1797   0.08477   0.07936  -0.2922  0.3208  0.4397  -2.8958   0.0147   0.3670
   5.000   2.2577   0.08635   0.08110  -0.2869  0.3141  0.4816  -3.0691   0.0147   0.3576
   6.000   2.3227   0.08879   0.08359  -0.2799  0.3034  0.5000  -3.2500   0.0149   0.3486
   7.000   2.3889   0.09091   0.08593  -0.2733  0.2962  0.5000  -3.4586   0.0149   0.3400
   8.000   2.4460   0.09362   0.08872  -0.2659  0.2830  0.5000  -3.7384   0.0150   0.3316
   9.000   2.4911   0.09739   0.09261  -0.2574  0.2693  0.5000  -4.0294   0.0151   0.3235
  10.000   2.5289   0.10171   0.09709  -0.2487  0.2528  0.5000  -4.3190   0.0153   0.3157
  11.000   2.5475   0.10796   0.10338  -0.2393  0.2226  0.5000  -4.5902   0.0155   0.3082
  12.000   2.5327   0.11803   0.11347  -0.2295  0.1879  0.5000  -4.7874   0.0158   0.3016
  13.000   2.4958   0.13106   0.12664  -0.2226  0.1592  0.5000  -4.9223   0.0162   0.2965
  14.000   2.4496   0.14566   0.14147  -0.2206  0.1376  0.5000  -5.0158   0.0166   0.2936
  15.000   2.3829   0.16342   0.15950  -0.2242  0.1184  0.5000  -5.0369   0.0172   0.2936
  16.000   2.3258   0.18016   0.17647  -0.2307  0.1019  0.5000  -5.0662   0.0177   0.2945
  17.000   2.2758   0.19593   0.19238  -0.2389  0.0851  0.5000  -5.1020   0.0182   0.2961


