XFLR5 v6.09.06

 Calculated polar for: S1223 MOD2015

 1 1 Reynolds number fixed          Mach number fixed         

 xtrf =   1.000 (top)        1.000 (bottom)
 Mach =   0.080     Re =     0.480 e 6     Ncrit =   9.000

  alpha     CL        CD       CDp       Cm    Top Xtr Bot Xtr   Cpmin    Chinge    XCp    
 ------- -------- --------- --------- -------- ------- ------- -------- --------- ---------
 -10.000   0.0522   0.12534   0.12288  -0.0802  0.9600  0.0175  -1.1737   0.0000   1.9309
  -9.500   0.0914   0.11835   0.11589  -0.0876  0.9571  0.0180  -1.1432   0.0000   1.2881
  -9.000   0.1160   0.11229   0.10986  -0.0908  0.9481  0.0186  -1.1458   0.0000   1.0930
  -8.500   0.1393   0.10603   0.10361  -0.0942  0.9378  0.0196  -1.1997   0.0000   0.9739
  -8.000   0.1500   0.09882   0.09642  -0.0995  0.9248  0.0201  -1.5307   0.0000   0.9561
  -7.500   0.3687   0.05879   0.05583  -0.1343  0.7735  0.0240  -1.0829   0.0000   0.6277
  -7.000   0.3690   0.05727   0.05358  -0.1291  0.6334  0.0247  -1.0192   0.0000   0.6115
  -6.500   0.3692   0.05435   0.05040  -0.1256  0.5779  0.0261  -1.0201   0.0000   0.6005
  -5.500   0.3248   0.06814   0.06405  -0.1302  0.5820  0.0273  -1.5597   0.0000   0.6649
  -5.000   0.3233   0.06591   0.06169  -0.1247  0.5468  0.0279  -1.4824   0.0000   0.6478
  -4.500   0.3272   0.06417   0.05987  -0.1197  0.5219  0.0288  -1.3592   0.0000   0.6259
  -4.000   0.6295   0.01696   0.01029  -0.2466  0.5007  0.0231  -2.9763   0.0000   0.6484
  -3.500   0.7152   0.01592   0.00875  -0.2533  0.4795  0.0237  -2.6240   0.0000   0.6090
  -3.000   0.7945   0.01531   0.00791  -0.2584  0.4618  0.0245  -2.2444   0.0000   0.5786
  -2.500   0.8677   0.01505   0.00751  -0.2619  0.4484  0.0253  -1.8828   0.0000   0.5539
  -2.000   0.9368   0.01503   0.00732  -0.2645  0.4365  0.0268  -1.6056   0.0000   0.5332
  -1.500   1.0063   0.01502   0.00715  -0.2671  0.4255  0.0282  -1.4618   0.0000   0.5152
  -1.000   1.0724   0.01516   0.00715  -0.2689  0.4167  0.0301  -1.5303   0.0000   0.4995
  -0.500   1.1362   0.01529   0.00720  -0.2701  0.4093  0.0342  -1.5981   0.0000   0.4855
   0.000   1.2117   0.01536   0.00750  -0.2743  0.4010  0.1767  -1.6748   0.0000   0.4731
   0.500   1.2688   0.01569   0.00794  -0.2742  0.3955  0.2398  -1.7389   0.0000   0.4619
   1.000   1.3227   0.01609   0.00836  -0.2733  0.3903  0.2724  -1.8041   0.0000   0.4515
   1.500   1.3782   0.01653   0.00874  -0.2728  0.3852  0.2900  -1.8716   0.0000   0.4419
   2.000   1.4363   0.01714   0.00927  -0.2730  0.3793  0.3097  -1.9436   0.0000   0.4330
   2.500   1.4907   0.01746   0.00965  -0.2723  0.3757  0.3261  -2.0147   0.0000   0.4247
   3.000   1.5458   0.01788   0.01011  -0.2718  0.3716  0.3465  -2.0865   0.0000   0.4170
   3.500   1.6003   0.01834   0.01061  -0.2713  0.3674  0.3712  -2.1587   0.0000   0.4097
   4.000   1.6556   0.01896   0.01121  -0.2709  0.3626  0.4030  -2.2318   0.0000   0.4029
   4.500   1.7131   0.01958   0.01193  -0.2711  0.3587  0.4449  -2.3069   0.0000   0.3966
   5.000   1.7657   0.02008   0.01260  -0.2703  0.3557  0.4971  -2.3840   0.0000   0.3905
   5.500   1.8176   0.02062   0.01332  -0.2694  0.3517  0.5656  -2.4640   0.0000   0.3846
   6.000   1.8699   0.02122   0.01410  -0.2686  0.3476  0.6649  -2.5467   0.0000   0.3790
   7.000   1.9636   0.02246   0.01566  -0.2648  0.3394  1.0000  -2.7119   0.0000   0.3683
   7.500   2.0060   0.02318   0.01648  -0.2622  0.3358  1.0000  -2.7982   0.0000   0.3630
   8.000   2.0482   0.02396   0.01731  -0.2595  0.3316  1.0000  -2.8860   0.0000   0.3580
   8.500   2.0896   0.02482   0.01819  -0.2568  0.3274  1.0000  -2.9842   0.0000   0.3531
   9.000   2.1384   0.02592   0.01927  -0.2557  0.3220  1.0000  -3.0907   0.0000   0.3487
   9.500   2.1702   0.02687   0.02040  -0.2514  0.3184  1.0000  -3.1850   0.0000   0.3439
  10.000   2.2048   0.02792   0.02158  -0.2477  0.3139  1.0000  -3.2955   0.0000   0.3392
  10.500   2.2373   0.02908   0.02280  -0.2437  0.3089  1.0000  -3.4193   0.0000   0.3347
  11.000   2.2712   0.03049   0.02427  -0.2403  0.3032  1.0000  -3.5693   0.0000   0.3304
  11.500   2.2973   0.03191   0.02590  -0.2356  0.2982  1.0000  -3.7079   0.0000   0.3260
  12.000   2.3209   0.03352   0.02761  -0.2308  0.2917  1.0000  -3.8486   0.0000   0.3217
  12.500   2.3434   0.03550   0.02971  -0.2262  0.2849  1.0000  -3.9920   0.0000   0.3175
  13.000   2.3660   0.03749   0.03190  -0.2219  0.2780  1.0000  -4.1365   0.0000   0.3135
  13.500   2.3826   0.04018   0.03464  -0.2173  0.2710  1.0000  -4.2719   0.0000   0.3096
  14.000   2.4030   0.04270   0.03741  -0.2134  0.2638  1.0000  -4.4221   0.0000   0.3059
  14.500   2.4105   0.04649   0.04127  -0.2087  0.2553  1.0000  -4.5468   0.0000   0.3024
  15.000   2.4221   0.05020   0.04520  -0.2050  0.2459  1.0000  -4.6800   0.0000   0.2991
  15.500   2.4215   0.05544   0.05059  -0.2011  0.2363  1.0000  -4.7862   0.0000   0.2960
  16.000   2.4118   0.06216   0.05744  -0.1977  0.2255  1.0000  -4.8704   0.0000   0.2935
  16.500   2.3978   0.06998   0.06547  -0.1952  0.2144  1.0000  -4.9417   0.0000   0.2914
  17.000   2.3679   0.08061   0.07630  -0.1940  0.2030  1.0000  -4.9715   0.0000   0.2904


