XFLR5 v6.09.06

 Calculated polar for: S1223 MOD2015

 1 1 Reynolds number fixed          Mach number fixed         

 xtrf =   1.000 (top)        1.000 (bottom)
 Mach =   0.000     Re =     0.340 e 6     Ncrit =   9.000

  alpha     CL        CD       CDp       Cm    Top Xtr Bot Xtr   Cpmin    Chinge    XCp    
 ------- -------- --------- --------- -------- ------- ------- -------- --------- ---------
 -10.000   0.0040   0.13222   0.12942  -0.0669  0.9671  0.0212  -1.1408   0.0000  18.6289
  -8.500   0.2145   0.08632   0.08377  -0.0944  0.9077  0.0259  -0.9072   0.0000   0.7102
  -8.000   0.1298   0.10480   0.10206  -0.0893  0.9363  0.0245  -1.2210   0.0000   0.9842
  -6.500   0.1966   0.08744   0.08475  -0.0965  0.8741  0.0287  -1.2758   0.0000   0.7652
  -6.000   0.2662   0.07704   0.07415  -0.1150  0.8293  0.0320  -1.3766   0.0000   0.6996
  -5.500   0.3457   0.06861   0.06477  -0.1348  0.6837  0.0364  -1.3712   0.0000   0.6533
  -5.000   0.3461   0.06743   0.06312  -0.1273  0.5995  0.0373  -1.2444   0.0000   0.6290
  -4.500   0.3404   0.06547   0.06100  -0.1215  0.5626  0.0387  -1.2130   0.0000   0.6165
  -3.500   0.4593   0.03027   0.02530  -0.1839  0.5261  0.0328  -2.3236   0.0000   0.6565
  -3.000   0.4749   0.03339   0.02845  -0.1723  0.5053  0.0382  -1.9337   0.0000   0.6172
  -2.500   0.5476   0.03230   0.02723  -0.1806  0.4866  0.0568  -1.5569   0.0000   0.5822
  -2.000   0.9204   0.01643   0.00830  -0.2609  0.4605  0.0336  -1.5441   0.0000   0.5344
  -1.500   0.9918   0.01636   0.00810  -0.2640  0.4487  0.0354  -1.4410   0.0000   0.5160
  -1.000   1.0635   0.01651   0.00805  -0.2671  0.4382  0.0387  -1.5123   0.0000   0.5000
  -0.500   1.1318   0.01658   0.00806  -0.2695  0.4297  0.0524  -1.5818   0.0000   0.4858
   0.000   1.2062   0.01682   0.00857  -0.2735  0.4214  0.2381  -1.6567   0.0000   0.4735
   0.500   1.2607   0.01732   0.00907  -0.2727  0.4150  0.2738  -1.7186   0.0000   0.4622
   1.000   1.3163   0.01774   0.00946  -0.2723  0.4088  0.2953  -1.7847   0.0000   0.4518
   1.500   1.3739   0.01828   0.00990  -0.2724  0.4031  0.3181  -1.8527   0.0000   0.4422
   2.000   1.4373   0.01882   0.01040  -0.2737  0.3979  0.3346  -1.9286   0.0000   0.4335
   2.500   1.4928   0.01919   0.01083  -0.2733  0.3930  0.3521  -1.9991   0.0000   0.4253
   3.000   1.5490   0.01964   0.01130  -0.2732  0.3881  0.3742  -2.0710   0.0000   0.4176
   3.500   1.6071   0.02019   0.01185  -0.2735  0.3836  0.4029  -2.1448   0.0000   0.4105
   4.000   1.6719   0.02095   0.01262  -0.2753  0.3785  0.4418  -2.2239   0.0000   0.4041
   4.500   1.7237   0.02145   0.01332  -0.2744  0.3748  0.4895  -2.2963   0.0000   0.3976
   5.000   1.7785   0.02203   0.01408  -0.2741  0.3707  0.5525  -2.3762   0.0000   0.3916
   5.500   1.8336   0.02263   0.01487  -0.2739  0.3664  0.6450  -2.4583   0.0000   0.3859
   6.000   1.8859   0.02316   0.01566  -0.2731  0.3619  0.8629  -2.5419   0.0000   0.3803
   7.000   1.9735   0.02461   0.01727  -0.2684  0.3539  1.0000  -2.7013   0.0000   0.3695
   7.500   2.0168   0.02537   0.01808  -0.2660  0.3494  1.0000  -2.7883   0.0000   0.3644
   8.000   2.0621   0.02617   0.01887  -0.2641  0.3451  1.0000  -2.8818   0.0000   0.3595
   8.500   2.1151   0.02730   0.01998  -0.2639  0.3401  1.0000  -2.9914   0.0000   0.3551
   9.000   2.1450   0.02824   0.02113  -0.2591  0.3361  1.0000  -3.0756   0.0000   0.3501
   9.500   2.1790   0.02920   0.02222  -0.2552  0.3312  1.0000  -3.1759   0.0000   0.3453
  10.000   2.2146   0.03015   0.02321  -0.2516  0.3263  1.0000  -3.2876   0.0000   0.3407
  10.500   2.2564   0.03145   0.02457  -0.2496  0.3211  1.0000  -3.4323   0.0000   0.3365
  11.000   2.2741   0.03284   0.02622  -0.2431  0.3160  1.0000  -3.5541   0.0000   0.3316
  11.500   2.2979   0.03418   0.02769  -0.2379  0.3104  1.0000  -3.6884   0.0000   0.3271
  12.000   2.3323   0.03559   0.02908  -0.2348  0.3042  1.0000  -3.8477   0.0000   0.3231
  12.500   2.3371   0.03779   0.03163  -0.2272  0.2984  1.0000  -3.9572   0.0000   0.3184
  13.000   2.3500   0.03990   0.03389  -0.2213  0.2917  1.0000  -4.0830   0.0000   0.3141
  13.500   2.3643   0.04239   0.03653  -0.2162  0.2850  1.0000  -4.2116   0.0000   0.3101
  14.000   2.3712   0.04551   0.03992  -0.2108  0.2778  1.0000  -4.3321   0.0000   0.3062
  14.500   2.3823   0.04872   0.04318  -0.2064  0.2708  1.0000  -4.4626   0.0000   0.3026
  15.000   2.3828   0.05314   0.04795  -0.2017  0.2628  1.0000  -4.5686   0.0000   0.2993
  15.500   2.3813   0.05814   0.05305  -0.1978  0.2543  1.0000  -4.6709   0.0000   0.2962
  16.000   2.3722   0.06453   0.05973  -0.1945  0.2443  1.0000  -4.7534   0.0000   0.2937
  16.500   2.3560   0.07238   0.06779  -0.1921  0.2343  1.0000  -4.8170   0.0000   0.2917
  17.000   2.3291   0.08231   0.07786  -0.1909  0.2235  1.0000  -4.8514   0.0000   0.2906


