xflr5 v6.10.03

 Calculated polar for: S1223 MOD2015 FLAP

 1 1 Reynolds number fixed          Mach number fixed         

 xtrf =   0.500 (top)        0.500 (bottom)
 Mach =   0.000     Re =     0.500 e 6     Ncrit =   9.000

  alpha     CL        CD       CDp       Cm    Top Xtr Bot Xtr   Cpmin    Chinge    XCp    
 ------- -------- --------- --------- -------- ------- ------- -------- --------- ---------
  -5.000   0.9410   0.05148   0.04599  -0.2503  0.4905  0.0293  -1.8215   0.0092   0.5200
  -4.000   1.1885   0.05917   0.05316  -0.2757  0.4477  0.0337  -1.5490   0.0111   0.4832
  -3.000   1.4811   0.07186   0.06577  -0.3079  0.4174  0.2364  -1.8302   0.0133   0.4567
  -2.000   1.5884   0.07368   0.06740  -0.3068  0.4017  0.2787  -1.9649   0.0134   0.4397
  -1.000   1.6898   0.07530   0.06894  -0.3047  0.3903  0.3052  -2.1014   0.0136   0.4246
   0.000   1.7932   0.07675   0.07031  -0.3028  0.3798  0.3277  -2.2486   0.0138   0.4110
   1.000   1.8899   0.07841   0.07200  -0.3001  0.3710  0.3577  -2.3936   0.0140   0.3986
   2.000   1.9878   0.07913   0.07271  -0.2975  0.3615  0.3960  -2.5405   0.0140   0.3873
   3.000   2.0720   0.08083   0.07461  -0.2930  0.3545  0.4367  -2.6884   0.0142   0.3768
   4.000   2.1526   0.08212   0.07597  -0.2880  0.3456  0.4790  -2.8440   0.0143   0.3669
   5.000   2.2317   0.08369   0.07773  -0.2831  0.3376  0.5000  -3.0160   0.0144   0.3576
   6.000   2.2998   0.08602   0.08022  -0.2768  0.3287  0.5000  -3.1986   0.0145   0.3487
   7.000   2.3642   0.08805   0.08242  -0.2703  0.3191  0.5000  -3.4013   0.0147   0.3401
   8.000   2.4080   0.09211   0.08672  -0.2614  0.3088  0.5000  -3.6509   0.0148   0.3317
   9.000   2.4464   0.09651   0.09140  -0.2526  0.2965  0.5000  -3.9207   0.0150   0.3236
  10.000   2.4716   0.10232   0.09745  -0.2431  0.2833  0.5000  -4.1793   0.0152   0.3157
  11.000   2.4921   0.10862   0.10403  -0.2345  0.2695  0.5000  -4.4398   0.0154   0.3084
  12.000   2.4983   0.11660   0.11232  -0.2265  0.2526  0.5000  -4.6753   0.0157   0.3018
  13.000   2.4907   0.12618   0.12223  -0.2201  0.2334  0.5000  -4.8757   0.0160   0.2960
  14.000   2.4613   0.13852   0.13488  -0.2165  0.2104  0.5000  -5.0143   0.0163   0.2920
  15.000   2.4047   0.15464   0.15125  -0.2179  0.1851  0.5000  -5.0733   0.0168   0.2906
  16.000   2.3367   0.17269   0.16947  -0.2243  0.1600  0.5000  -5.0735   0.0174   0.2917
  17.000   2.2837   0.18873   0.18569  -0.2323  0.1367  0.5000  -5.1029   0.0179   0.2932


