xflr5 v6.10.03

 Calculated polar for: S1223 MOD2015

 1 1 Reynolds number fixed          Mach number fixed         

 xtrf =   0.500 (top)        0.500 (bottom)
 Mach =   0.000     Re =     0.840 e 6     Ncrit =   9.000

  alpha     CL        CD       CDp       Cm    Top Xtr Bot Xtr   Cpmin    Chinge    XCp    
 ------- -------- --------- --------- -------- ------- ------- -------- --------- ---------
  -5.000   0.5332   0.01509   0.00920  -0.2497  0.4988  0.0166  -3.8283   0.0000   0.7291
  -4.000   0.6980   0.01349   0.00697  -0.2620  0.4571  0.0179  -2.9522   0.0000   0.6317
  -3.000   0.8383   0.01307   0.00619  -0.2678  0.4286  0.0189  -2.2033   0.0000   0.5727
  -2.000   0.9706   0.01301   0.00585  -0.2716  0.4060  0.0196  -1.6174   0.0000   0.5306
  -1.000   1.0977   0.01312   0.00578  -0.2742  0.3902  0.0217  -1.5511   0.0000   0.4984
   0.000   1.2169   0.01352   0.00603  -0.2750  0.3767  0.0275  -1.6829   0.0000   0.4727
   1.000   1.3451   0.01375   0.00666  -0.2781  0.3667  0.2290  -1.8249   0.0000   0.4516
   2.000   1.4521   0.01452   0.00744  -0.2765  0.3576  0.2771  -1.9603   0.0000   0.4334
   3.000   1.5603   0.01518   0.00818  -0.2752  0.3506  0.3165  -2.1040   0.0000   0.4175
   4.000   1.6641   0.01626   0.00926  -0.2732  0.3412  0.3645  -2.2446   0.0000   0.4034
   5.000   1.7682   0.01705   0.01028  -0.2713  0.3366  0.4400  -2.3896   0.0000   0.3908
   6.000   1.8669   0.01806   0.01141  -0.2685  0.3295  0.5000  -2.5465   0.0000   0.3792
   7.000   1.9591   0.01947   0.01284  -0.2647  0.3213  0.5000  -2.7089   0.0000   0.3685
   8.000   2.0483   0.02061   0.01413  -0.2604  0.3149  0.5000  -2.8871   0.0000   0.3584
   9.000   2.1298   0.02239   0.01595  -0.2550  0.3049  0.5000  -3.0812   0.0000   0.3488
  10.000   2.2120   0.02379   0.01758  -0.2500  0.2976  0.5000  -3.3047   0.0000   0.3399
  11.000   2.2830   0.02595   0.01985  -0.2434  0.2859  0.5000  -3.5895   0.0000   0.3312
  12.000   2.3501   0.02835   0.02241  -0.2368  0.2723  0.5000  -3.9019   0.0000   0.3229
  13.000   2.4118   0.03131   0.02557  -0.2299  0.2586  0.5000  -4.2212   0.0000   0.3150
  14.000   2.4551   0.03584   0.03024  -0.2214  0.2393  0.5000  -4.5280   0.0000   0.3074
  15.000   2.4740   0.04297   0.03746  -0.2117  0.2101  0.5000  -4.7892   0.0000   0.3001
  16.000   2.4511   0.05556   0.05014  -0.2016  0.1754  0.5000  -4.9560   0.0000   0.2939
  17.000   2.3874   0.07612   0.07099  -0.1960  0.1508  0.5000  -5.0172   0.0000   0.2907


