XFLR5 v6.09.06

 Calculated polar for: S1223 MOD2015

 1 1 Reynolds number fixed          Mach number fixed         

 xtrf =   1.000 (top)        1.000 (bottom)
 Mach =   0.080     Re =     0.220 e 6     Ncrit =   9.000

  alpha     CL        CD       CDp       Cm    Top Xtr Bot Xtr   Cpmin    Chinge    XCp    
 ------- -------- --------- --------- -------- ------- ------- -------- --------- ---------
 -10.000  -0.0711   0.14256   0.13929  -0.0468  0.9786  0.0285  -1.1508   0.0000  -0.4991
  -9.500  -0.0335   0.13542   0.13216  -0.0540  0.9707  0.0299  -1.1353   0.0000  -1.5530
  -9.000  -0.0047   0.12840   0.12515  -0.0630  0.9615  0.0315  -1.2924   0.0000  -14.3845
  -8.500   0.0373   0.12075   0.11752  -0.0684  0.9537  0.0324  -1.1942   0.0000   2.2444
  -8.000   0.0811   0.11350   0.11027  -0.0764  0.9465  0.0346  -1.1616   0.0000   1.2629
  -7.500   0.0976   0.10703   0.10385  -0.0816  0.9297  0.0364  -1.3206   0.0000   1.1421
  -7.000   0.1364   0.10058   0.09743  -0.0844  0.9147  0.0382  -1.1868   0.0000   0.9055
  -6.500   0.1476   0.09472   0.09161  -0.0919  0.8939  0.0414  -1.4118   0.0000   0.9040
  -6.000   0.1845   0.08880   0.08571  -0.0895  0.8627  0.0437  -1.1851   0.0000   0.7577
  -5.500   0.2112   0.08158   0.07839  -0.1006  0.8224  0.0474  -1.3684   0.0000   0.7446
  -5.000   0.3261   0.07046   0.06659  -0.1277  0.7256  0.0538  -1.2916   0.0000   0.6535
  -4.500   0.3595   0.06651   0.06195  -0.1263  0.6284  0.0555  -1.1251   0.0000   0.6104
  -4.000   0.3689   0.06368   0.05885  -0.1239  0.5872  0.0587  -1.0800   0.0000   0.5932
  -3.500   0.5671   0.02615   0.02007  -0.2163  0.5650  0.0421  -2.3326   0.0000   0.6368
  -3.000   0.5144   0.03323   0.02780  -0.1836  0.5448  0.0485  -1.9256   0.0000   0.6111
  -2.500   0.8325   0.01913   0.01075  -0.2545  0.5102  0.0431  -1.8081   0.0000   0.5578
  -2.000   0.9103   0.01873   0.01013  -0.2589  0.4942  0.0451  -1.4928   0.0000   0.5353
  -1.500   0.9935   0.01867   0.00985  -0.2644  0.4807  0.0489  -1.4369   0.0000   0.5161
  -1.000   1.0700   0.01870   0.00976  -0.2686  0.4684  0.0598  -1.5104   0.0000   0.4999
  -0.500   1.1628   0.01885   0.01012  -0.2765  0.4580  0.2392  -1.5955   0.0000   0.4856
   0.000   1.2186   0.01958   0.01078  -0.2759  0.4497  0.2826  -1.6560   0.0000   0.4733
   0.500   1.2825   0.02041   0.01143  -0.2771  0.4420  0.3122  -1.7273   0.0000   0.4621
   1.000   1.3393   0.02101   0.01204  -0.2769  0.4351  0.3399  -1.7924   0.0000   0.4518
   1.500   1.4002   0.02142   0.01242  -0.2776  0.4287  0.3552  -1.8636   0.0000   0.4424
   2.000   1.4645   0.02199   0.01286  -0.2792  0.4230  0.3719  -1.9402   0.0000   0.4338
   2.500   1.5281   0.02274   0.01359  -0.2806  0.4174  0.3937  -2.0153   0.0000   0.4259
   3.000   1.5840   0.02327   0.01424  -0.2803  0.4118  0.4185  -2.0849   0.0000   0.4184
   3.500   1.6430   0.02391   0.01494  -0.2808  0.4067  0.4522  -2.1578   0.0000   0.4114
   4.000   1.7055   0.02470   0.01573  -0.2821  0.4016  0.4974  -2.2393   0.0000   0.4049
   4.500   1.7640   0.02565   0.01688  -0.2826  0.3968  0.5562  -2.3190   0.0000   0.3988
   5.000   1.8166   0.02642   0.01795  -0.2818  0.3922  0.6392  -2.3958   0.0000   0.3928
   5.500   1.8642   0.02701   0.01887  -0.2799  0.3874  0.7957  -2.4721   0.0000   0.3868
   6.000   1.9086   0.02756   0.01941  -0.2775  0.3829  1.0000  -2.5489   0.0000   0.3810
   6.500   1.9647   0.02895   0.02076  -0.2777  0.3782  1.0000  -2.6400   0.0000   0.3760
   7.000   2.0053   0.02998   0.02199  -0.2748  0.3734  1.0000  -2.7201   0.0000   0.3707
   7.500   2.0493   0.03099   0.02308  -0.2725  0.3682  1.0000  -2.8070   0.0000   0.3656
   8.000   2.1000   0.03191   0.02396  -0.2716  0.3635  1.0000  -2.9117   0.0000   0.3609
   8.500   2.1486   0.03341   0.02551  -0.2706  0.3585  1.0000  -3.0160   0.0000   0.3564
   9.000   2.1754   0.03470   0.02711  -0.2652  0.3531  1.0000  -3.0963   0.0000   0.3513
   9.500   2.2093   0.03581   0.02834  -0.2612  0.3477  1.0000  -3.2021   0.0000   0.3466
  10.000   2.2618   0.03669   0.02914  -0.2608  0.3425  1.0000  -3.3386   0.0000   0.3425
  10.500   2.2745   0.03853   0.03131  -0.2532  0.3371  1.0000  -3.4467   0.0000   0.3374
  11.000   2.2845   0.04028   0.03334  -0.2453  0.3314  1.0000  -3.5553   0.0000   0.3323
  11.500   2.3196   0.04107   0.03414  -0.2418  0.3256  1.0000  -3.7110   0.0000   0.3280
  12.000   2.3356   0.04315   0.03642  -0.2356  0.3196  1.0000  -3.8365   0.0000   0.3234
  12.500   2.3286   0.04592   0.03956  -0.2261  0.3131  1.0000  -3.9237   0.0000   0.3185
  13.000   2.3575   0.04687   0.04051  -0.2222  0.3066  1.0000  -4.0824   0.0000   0.3143
  13.500   2.3444   0.05072   0.04472  -0.2134  0.2998  1.0000  -4.1575   0.0000   0.3099
  14.000   2.3393   0.05417   0.04842  -0.2065  0.2925  1.0000  -4.2506   0.0000   0.3058
  14.500   2.3489   0.05703   0.05138  -0.2019  0.2855  1.0000  -4.3791   0.0000   0.3021
  15.000   2.3174   0.06391   0.05869  -0.1952  0.2774  1.0000  -4.4146   0.0000   0.2989
  15.500   2.3273   0.06747   0.06228  -0.1921  0.2699  1.0000  -4.5419   0.0000   0.2958
  16.000   2.2806   0.07812   0.07341  -0.1886  0.2608  1.0000  -4.5325   0.0000   0.2944
  16.500   2.2649   0.08595   0.08142  -0.1873  0.2519  1.0000  -4.5923   0.0000   0.2929
  17.000   2.2372   0.09606   0.09172  -0.1876  0.2415  1.0000  -4.6179   0.0000   0.2925


