xflr5 v6.10.03

 Calculated polar for: S1223 MOD2015

 1 1 Reynolds number fixed          Mach number fixed         

 xtrf =   0.500 (top)        0.500 (bottom)
 Mach =   0.000     Re =     1.000 e 6     Ncrit =   9.000

  alpha     CL        CD       CDp       Cm    Top Xtr Bot Xtr   Cpmin    Chinge    XCp    
 ------- -------- --------- --------- -------- ------- ------- -------- --------- ---------
  -5.000   0.5637   0.01375   0.00782  -0.2572  0.4809  0.0159  -3.8103   0.0000   0.7168
  -4.000   0.7096   0.01299   0.00657  -0.2646  0.4454  0.0168  -2.9383   0.0000   0.6291
  -3.000   0.8538   0.01247   0.00570  -0.2713  0.4181  0.0175  -2.2182   0.0000   0.5710
  -2.000   0.9839   0.01245   0.00544  -0.2745  0.3972  0.0182  -1.6174   0.0000   0.5298
  -1.000   1.1062   0.01270   0.00550  -0.2760  0.3805  0.0197  -1.5589   0.0000   0.4981
   0.000   1.2261   0.01294   0.00567  -0.2769  0.3703  0.0246  -1.6922   0.0000   0.4725
   1.000   1.3535   0.01325   0.00632  -0.2799  0.3591  0.2163  -1.8330   0.0000   0.4516
   2.000   1.4634   0.01378   0.00695  -0.2788  0.3523  0.2714  -1.9720   0.0000   0.4335
   3.000   1.5689   0.01462   0.00778  -0.2769  0.3429  0.3085  -2.1136   0.0000   0.4176
   4.000   1.6748   0.01535   0.00863  -0.2753  0.3377  0.3559  -2.2573   0.0000   0.4036
   5.000   1.7776   0.01617   0.00959  -0.2731  0.3315  0.4249  -2.4014   0.0000   0.3910
   6.000   1.8747   0.01746   0.01097  -0.2701  0.3222  0.5000  -2.5557   0.0000   0.3794
   7.000   1.9703   0.01834   0.01197  -0.2668  0.3174  0.5000  -2.7230   0.0000   0.3687
   8.000   2.0590   0.01959   0.01329  -0.2624  0.3098  0.5000  -2.9014   0.0000   0.3587
   9.000   2.1441   0.02107   0.01487  -0.2576  0.3016  0.5000  -3.1005   0.0000   0.3492
  10.000   2.2261   0.02255   0.01647  -0.2525  0.2921  0.5000  -3.3258   0.0000   0.3403
  11.000   2.3031   0.02434   0.01840  -0.2468  0.2797  0.5000  -3.6256   0.0000   0.3317
  12.000   2.3717   0.02669   0.02089  -0.2403  0.2668  0.5000  -3.9435   0.0000   0.3235
  13.000   2.4315   0.02973   0.02406  -0.2329  0.2499  0.5000  -4.2622   0.0000   0.3155
  14.000   2.4707   0.03455   0.02892  -0.2237  0.2236  0.5000  -4.5633   0.0000   0.3077
  15.000   2.4757   0.04290   0.03724  -0.2123  0.1852  0.5000  -4.7959   0.0000   0.3002
  16.000   2.4540   0.05537   0.04983  -0.2022  0.1568  0.5000  -4.9654   0.0000   0.2941
  17.000   2.3994   0.07465   0.06943  -0.1966  0.1366  0.5000  -5.0495   0.0000   0.2905


