xflr5 v6.10.03

 Calculated polar for: S1223 MOD2015 FLAP

 1 1 Reynolds number fixed          Mach number fixed         

 xtrf =   0.500 (top)        0.500 (bottom)
 Mach =   0.080     Re =     0.520 e 6     Ncrit =   9.000

  alpha     CL        CD       CDp       Cm    Top Xtr Bot Xtr   Cpmin    Chinge    XCp    
 ------- -------- --------- --------- -------- ------- ------- -------- --------- ---------
  -5.000   0.2645   0.07925   0.07586  -0.0681  0.5000  0.0295  -1.1364  -0.0002   0.5090
  -4.000   0.3132   0.07010   0.06669  -0.0740  0.4886  0.0337  -1.1056   0.0003   0.4853
  -3.000   1.4857   0.07214   0.06607  -0.3086  0.4140  0.2310  -1.8403   0.0134   0.4564
  -2.000   1.5951   0.07415   0.06793  -0.3077  0.3990  0.2760  -1.9775   0.0135   0.4394
  -1.000   1.6967   0.07573   0.06938  -0.3055  0.3870  0.3029  -2.1151   0.0137   0.4243
   0.000   1.7992   0.07732   0.07096  -0.3034  0.3773  0.3250  -2.2623   0.0139   0.4107
   1.000   1.8961   0.07892   0.07255  -0.3006  0.3682  0.3550  -2.4086   0.0140   0.3983
   2.000   1.9924   0.07997   0.07366  -0.2976  0.3597  0.3922  -2.5546   0.0141   0.3870
   3.000   2.0783   0.08157   0.07542  -0.2932  0.3521  0.4333  -2.7052   0.0143   0.3764
   4.000   2.1662   0.08211   0.07596  -0.2891  0.3422  0.4764  -2.8691   0.0143   0.3666
   5.000   2.2376   0.08454   0.07867  -0.2830  0.3353  0.5000  -3.0342   0.0145   0.3571
   6.000   2.3082   0.08665   0.08087  -0.2769  0.3261  0.5000  -3.2209   0.0146   0.3482
   7.000   2.3698   0.08915   0.08361  -0.2699  0.3169  0.5000  -3.4207   0.0147   0.3396
   8.000   2.4155   0.09300   0.08762  -0.2612  0.3061  0.5000  -3.6740   0.0149   0.3311
   9.000   2.4510   0.09794   0.09291  -0.2519  0.2939  0.5000  -3.9407   0.0151   0.3230
  10.000   2.4785   0.10361   0.09884  -0.2427  0.2807  0.5000  -4.2059   0.0153   0.3152
  11.000   2.4990   0.10999   0.10548  -0.2342  0.2666  0.5000  -4.4685   0.0155   0.3079
  12.000   2.5049   0.11811   0.11393  -0.2263  0.2492  0.5000  -4.7054   0.0158   0.3013
  13.000   2.4949   0.12808   0.12422  -0.2201  0.2291  0.5000  -4.9017   0.0161   0.2958
  14.000   2.4551   0.14184   0.13822  -0.2173  0.2054  0.5000  -5.0138   0.0165   0.2923
  15.000   2.3987   0.15805   0.15470  -0.2195  0.1796  0.5000  -5.0694   0.0170   0.2912
  16.000   2.3334   0.17579   0.17264  -0.2262  0.1552  0.5000  -5.0734   0.0175   0.2925
  17.000   2.2762   0.19254   0.18948  -0.2351  0.1317  0.5000  -5.0863   0.0181   0.2945


