xflr5 v6.10.03

 Calculated polar for: S1223 MOD2015 FLAP

 1 1 Reynolds number fixed          Mach number fixed         

 xtrf =   0.500 (top)        0.500 (bottom)
 Mach =   0.080     Re =     0.940 e 6     Ncrit =   9.000

  alpha     CL        CD       CDp       Cm    Top Xtr Bot Xtr   Cpmin    Chinge    XCp    
 ------- -------- --------- --------- -------- ------- ------- -------- --------- ---------
  -5.000   1.0226   0.05450   0.04937  -0.2652  0.4395  0.0225  -1.7440   0.0102   0.5133
  -4.000   1.2761   0.06317   0.05756  -0.2914  0.4042  0.0248  -1.6293   0.0121   0.4795
  -3.000   1.5077   0.07272   0.06709  -0.3124  0.3824  0.1733  -1.8670   0.0136   0.4559
  -2.000   1.6236   0.07529   0.06966  -0.3127  0.3715  0.2496  -2.0125   0.0139   0.4390
  -1.000   1.7248   0.07707   0.07137  -0.3105  0.3608  0.2780  -2.1498   0.0141   0.4242
   0.000   1.8226   0.07863   0.07294  -0.3077  0.3535  0.2988  -2.2954   0.0142   0.4108
   1.000   1.9161   0.08027   0.07453  -0.3043  0.3430  0.3277  -2.4397   0.0143   0.3986
   2.000   2.0077   0.08171   0.07608  -0.3008  0.3383  0.3614  -2.5842   0.0145   0.3873
   3.000   2.0948   0.08328   0.07772  -0.2966  0.3309  0.4018  -2.7341   0.0146   0.3768
   4.000   2.1764   0.08482   0.07931  -0.2916  0.3219  0.4427  -2.8913   0.0146   0.3669
   5.000   2.2540   0.08644   0.08114  -0.2863  0.3158  0.4848  -3.0640   0.0147   0.3576
   6.000   2.3191   0.08893   0.08370  -0.2793  0.3059  0.5000  -3.2450   0.0148   0.3485
   7.000   2.3840   0.09115   0.08612  -0.2726  0.2980  0.5000  -3.4509   0.0149   0.3399
   8.000   2.4391   0.09408   0.08913  -0.2650  0.2846  0.5000  -3.7258   0.0150   0.3315
   9.000   2.4875   0.09754   0.09277  -0.2569  0.2723  0.5000  -4.0218   0.0151   0.3234
  10.000   2.5263   0.10177   0.09719  -0.2484  0.2574  0.5000  -4.3128   0.0153   0.3156
  11.000   2.5467   0.10786   0.10335  -0.2391  0.2311  0.5000  -4.5869   0.0155   0.3082
  12.000   2.5348   0.11762   0.11312  -0.2294  0.1956  0.5000  -4.7908   0.0158   0.3015
  13.000   2.4987   0.13052   0.12615  -0.2224  0.1656  0.5000  -4.9282   0.0162   0.2964
  14.000   2.4462   0.14592   0.14177  -0.2205  0.1429  0.5000  -5.0057   0.0166   0.2937
  15.000   2.3869   0.16265   0.15877  -0.2237  0.1236  0.5000  -5.0481   0.0172   0.2932
  16.000   2.3217   0.18057   0.17692  -0.2309  0.1061  0.5000  -5.0513   0.0177   0.2948
  17.000   2.2766   0.19560   0.19211  -0.2386  0.0896  0.5000  -5.1035   0.0182   0.2959


