xflr5 v6.10.03

 Calculated polar for: S1223 MOD2015 FLAP

 1 1 Reynolds number fixed          Mach number fixed         

 xtrf =   0.500 (top)        0.500 (bottom)
 Mach =   0.000     Re =     0.860 e 6     Ncrit =   9.000

  alpha     CL        CD       CDp       Cm    Top Xtr Bot Xtr   Cpmin    Chinge    XCp    
 ------- -------- --------- --------- -------- ------- ------- -------- --------- ---------
  -5.000   1.0016   0.05374   0.04855  -0.2612  0.4470  0.0233  -1.7596   0.0099   0.5147
  -4.000   1.2685   0.06293   0.05728  -0.2901  0.4117  0.0261  -1.6176   0.0120   0.4799
  -3.000   1.5016   0.07262   0.06694  -0.3115  0.3883  0.1876  -1.8553   0.0136   0.4562
  -2.000   1.6154   0.07509   0.06939  -0.3116  0.3762  0.2549  -1.9977   0.0138   0.4393
  -1.000   1.7151   0.07681   0.07100  -0.3092  0.3642  0.2822  -2.1330   0.0140   0.4245
   0.000   1.8129   0.07837   0.07258  -0.3065  0.3572  0.3030  -2.2772   0.0141   0.4111
   1.000   1.9063   0.07996   0.07417  -0.3033  0.3487  0.3319  -2.4213   0.0143   0.3989
   2.000   1.9972   0.08142   0.07565  -0.2997  0.3409  0.3666  -2.5631   0.0144   0.3876
   3.000   2.0841   0.08292   0.07729  -0.2957  0.3345  0.4071  -2.7120   0.0145   0.3771
   4.000   2.1646   0.08451   0.07891  -0.2907  0.3258  0.4477  -2.8674   0.0146   0.3673
   5.000   2.2416   0.08601   0.08059  -0.2854  0.3188  0.4899  -3.0376   0.0147   0.3579
   6.000   2.3099   0.08816   0.08289  -0.2791  0.3105  0.5000  -3.2212   0.0148   0.3490
   7.000   2.3697   0.09076   0.08561  -0.2718  0.3011  0.5000  -3.4186   0.0149   0.3403
   8.000   2.4261   0.09354   0.08854  -0.2645  0.2893  0.5000  -3.6926   0.0150   0.3320
   9.000   2.4744   0.09692   0.09212  -0.2566  0.2770  0.5000  -3.9850   0.0151   0.3239
  10.000   2.5117   0.10126   0.09664  -0.2480  0.2635  0.5000  -4.2697   0.0152   0.3161
  11.000   2.5375   0.10672   0.10221  -0.2393  0.2416  0.5000  -4.5513   0.0154   0.3087
  12.000   2.5324   0.11563   0.11117  -0.2299  0.2088  0.5000  -4.7681   0.0157   0.3019
  13.000   2.4959   0.12847   0.12409  -0.2223  0.1756  0.5000  -4.9047   0.0161   0.2966
  14.000   2.4510   0.14277   0.13861  -0.2196  0.1517  0.5000  -5.0026   0.0165   0.2933
  16.000   2.3307   0.17655   0.17290  -0.2283  0.1138  0.5000  -5.0698   0.0176   0.2935
  17.000   2.2792   0.19248   0.18899  -0.2363  0.0964  0.5000  -5.1022   0.0181   0.2950


