xflr5 v6.10.03

 Calculated polar for: S1223 MOD2015 FLAP

 1 1 Reynolds number fixed          Mach number fixed         

 xtrf =   0.500 (top)        0.500 (bottom)
 Mach =   0.080     Re =     0.500 e 6     Ncrit =   9.000

  alpha     CL        CD       CDp       Cm    Top Xtr Bot Xtr   Cpmin    Chinge    XCp    
 ------- -------- --------- --------- -------- ------- ------- -------- --------- ---------
  -5.000   0.9373   0.05135   0.04587  -0.2498  0.4888  0.0292  -1.8510   0.0092   0.5205
  -4.000   1.1832   0.05888   0.05289  -0.2747  0.4469  0.0335  -1.5496   0.0111   0.4834
  -3.000   1.4845   0.07201   0.06592  -0.3084  0.4163  0.2349  -1.8386   0.0133   0.4565
  -2.000   1.5928   0.07389   0.06762  -0.3073  0.4009  0.2780  -1.9747   0.0135   0.4394
  -1.000   1.6947   0.07551   0.06915  -0.3051  0.3894  0.3048  -2.1124   0.0136   0.4243
   0.000   1.7985   0.07701   0.07059  -0.3033  0.3791  0.3271  -2.2608   0.0138   0.4107
   1.000   1.8958   0.07867   0.07226  -0.3005  0.3702  0.3571  -2.4072   0.0140   0.3983
   2.000   1.9938   0.07949   0.07310  -0.2977  0.3610  0.3950  -2.5548   0.0141   0.3870
   3.000   2.0789   0.08118   0.07497  -0.2932  0.3537  0.4357  -2.7046   0.0142   0.3764
   4.000   2.1617   0.08229   0.07613  -0.2884  0.3445  0.4782  -2.8636   0.0143   0.3665
   5.000   2.2388   0.08414   0.07821  -0.2831  0.3368  0.5000  -3.0346   0.0144   0.3571
   6.000   2.3077   0.08647   0.08068  -0.2768  0.3278  0.5000  -3.2192   0.0146   0.3482
   7.000   2.3709   0.08872   0.08314  -0.2700  0.3182  0.5000  -3.4215   0.0147   0.3396
   8.000   2.4147   0.09283   0.08745  -0.2610  0.3077  0.5000  -3.6717   0.0149   0.3311
   9.000   2.4513   0.09756   0.09250  -0.2519  0.2954  0.5000  -3.9399   0.0151   0.3230
  10.000   2.4766   0.10348   0.09867  -0.2425  0.2821  0.5000  -4.2009   0.0153   0.3152
  11.000   2.4958   0.10999   0.10543  -0.2338  0.2679  0.5000  -4.4603   0.0155   0.3079
  12.000   2.5001   0.11834   0.11413  -0.2260  0.2509  0.5000  -4.6933   0.0158   0.3013
  13.000   2.4904   0.12833   0.12447  -0.2199  0.2311  0.5000  -4.8895   0.0161   0.2958
  14.000   2.4542   0.14165   0.13806  -0.2171  0.2078  0.5000  -5.0102   0.0165   0.2922
  15.000   2.3981   0.15784   0.15453  -0.2193  0.1828  0.5000  -5.0663   0.0170   0.2911
  16.000   2.3315   0.17578   0.17262  -0.2261  0.1582  0.5000  -5.0663   0.0175   0.2925
  17.000   2.2795   0.19175   0.18875  -0.2344  0.1349  0.5000  -5.0963   0.0180   0.2941


