xflr5 v6.10.03

 Calculated polar for: S1223 MOD2015

 1 1 Reynolds number fixed          Mach number fixed         

 xtrf =   0.500 (top)        0.500 (bottom)
 Mach =   0.080     Re =     0.500 e 6     Ncrit =   9.000

  alpha     CL        CD       CDp       Cm    Top Xtr Bot Xtr   Cpmin    Chinge    XCp    
 ------- -------- --------- --------- -------- ------- ------- -------- --------- ---------
  -5.000   0.3008   0.06590   0.06145  -0.1223  0.5000  0.0274  -1.6566   0.0000   0.6697
  -4.000   0.3313   0.06019   0.05589  -0.1183  0.5000  0.0295  -1.3734   0.0000   0.6152
  -3.000   0.3775   0.04879   0.04445  -0.1280  0.4739  0.0337  -1.4261   0.0000   0.5937
  -1.000   1.0741   0.01497   0.00703  -0.2693  0.4147  0.0292  -1.5323   0.0000   0.4994
   0.000   1.2126   0.01522   0.00740  -0.2745  0.3988  0.1673  -1.6762   0.0000   0.4731
   1.000   1.3239   0.01590   0.00822  -0.2735  0.3883  0.2699  -1.8060   0.0000   0.4514
   2.000   1.4360   0.01689   0.00911  -0.2729  0.3781  0.3067  -1.9443   0.0000   0.4330
   3.000   1.5453   0.01766   0.00994  -0.2717  0.3699  0.3434  -2.0874   0.0000   0.4169
   4.000   1.6589   0.01888   0.01116  -0.2717  0.3600  0.4003  -2.2352   0.0000   0.4030
   5.000   1.7641   0.01983   0.01241  -0.2699  0.3541  0.4918  -2.3836   0.0000   0.3904
   6.000   1.8620   0.02103   0.01364  -0.2669  0.3461  0.5000  -2.5401   0.0000   0.3787
   7.000   1.9596   0.02257   0.01523  -0.2640  0.3382  0.5000  -2.7087   0.0000   0.3681
   8.000   2.0445   0.02402   0.01685  -0.2587  0.3303  0.5000  -2.8828   0.0000   0.3579
   9.000   2.1317   0.02595   0.01886  -0.2544  0.3212  0.5000  -3.0838   0.0000   0.3485
  10.000   2.2005   0.02789   0.02110  -0.2468  0.3126  0.5000  -3.2907   0.0000   0.3391
  11.000   2.2664   0.03043   0.02382  -0.2393  0.3023  0.5000  -3.5618   0.0000   0.3302
  12.000   2.3178   0.03343   0.02710  -0.2302  0.2904  0.5000  -3.8437   0.0000   0.3215
  13.000   2.3647   0.03728   0.03129  -0.2215  0.2767  0.5000  -4.1349   0.0000   0.3134
  14.000   2.4030   0.04239   0.03671  -0.2132  0.2623  0.5000  -4.4231   0.0000   0.3059
  15.000   2.4223   0.04985   0.04447  -0.2047  0.2442  0.5000  -4.6815   0.0000   0.2990
  16.000   2.4122   0.06174   0.05665  -0.1973  0.2238  0.5000  -4.8725   0.0000   0.2933
  17.000   2.3694   0.07997   0.07528  -0.1935  0.2009  0.5000  -4.9767   0.0000   0.2901


