xflr5 v6.10.03

 Calculated polar for: S1223 MOD2015 FLAP

 1 1 Reynolds number fixed          Mach number fixed         

 xtrf =   0.500 (top)        0.500 (bottom)
 Mach =   0.000     Re =     0.820 e 6     Ncrit =   9.000

  alpha     CL        CD       CDp       Cm    Top Xtr Bot Xtr   Cpmin    Chinge    XCp    
 ------- -------- --------- --------- -------- ------- ------- -------- --------- ---------
  -5.000   0.2613   0.07738   0.07434  -0.0696  0.4867  0.0235  -1.2979  -0.0001   0.5184
  -4.000   0.3226   0.06533   0.06218  -0.0812  0.4613  0.0249  -1.4142   0.0007   0.5016
  -3.000   1.5004   0.07264   0.06695  -0.3112  0.3911  0.1932  -1.8537   0.0136   0.4562
  -2.000   1.6130   0.07506   0.06932  -0.3112  0.3781  0.2569  -1.9949   0.0138   0.4394
  -1.000   1.7129   0.07678   0.07094  -0.3088  0.3672  0.2841  -2.1307   0.0140   0.4245
   0.000   1.8105   0.07835   0.07250  -0.3061  0.3588  0.3050  -2.2742   0.0141   0.4111
   1.000   1.9043   0.07992   0.07409  -0.3029  0.3507  0.3336  -2.4185   0.0143   0.3989
   2.000   1.9953   0.08137   0.07554  -0.2994  0.3419  0.3688  -2.5602   0.0144   0.3876
   3.000   2.0822   0.08291   0.07722  -0.2953  0.3360  0.4094  -2.7091   0.0145   0.3771
   4.000   2.1628   0.08450   0.07889  -0.2904  0.3281  0.4503  -2.8650   0.0146   0.3672
   5.000   2.2393   0.08598   0.08051  -0.2850  0.3200  0.4923  -3.0343   0.0146   0.3579
   6.000   2.3085   0.08808   0.08277  -0.2788  0.3121  0.5000  -3.2187   0.0148   0.3489
   7.000   2.3668   0.09080   0.08559  -0.2714  0.3022  0.5000  -3.4140   0.0149   0.3403
   8.000   2.4239   0.09356   0.08854  -0.2642  0.2914  0.5000  -3.6881   0.0150   0.3320
   9.000   2.4701   0.09717   0.09235  -0.2560  0.2787  0.5000  -3.9762   0.0151   0.3239
  10.000   2.5063   0.10165   0.09700  -0.2474  0.2655  0.5000  -4.2584   0.0152   0.3161
  11.000   2.5345   0.10686   0.10239  -0.2390  0.2462  0.5000  -4.5438   0.0154   0.3087
  12.000   2.5327   0.11543   0.11102  -0.2298  0.2160  0.5000  -4.7677   0.0157   0.3019
  13.000   2.4994   0.12788   0.12356  -0.2223  0.1815  0.5000  -4.9120   0.0160   0.2965
  14.000   2.4485   0.14294   0.13882  -0.2195  0.1560  0.5000  -4.9950   0.0165   0.2934
  15.000   2.3890   0.15959   0.15573  -0.2220  0.1352  0.5000  -5.0401   0.0170   0.2926
  16.000   2.3270   0.17692   0.17330  -0.2284  0.1170  0.5000  -5.0567   0.0176   0.2937
  17.000   2.2805   0.19210   0.18866  -0.2359  0.0999  0.5000  -5.1055   0.0181   0.2948


