xflr5 v6.10.03

 Calculated polar for: S1223 MOD2015 FLAP

 1 1 Reynolds number fixed          Mach number fixed         

 xtrf =   0.500 (top)        0.500 (bottom)
 Mach =   0.080     Re =     0.760 e 6     Ncrit =   9.000

  alpha     CL        CD       CDp       Cm    Top Xtr Bot Xtr   Cpmin    Chinge    XCp    
 ------- -------- --------- --------- -------- ------- ------- -------- --------- ---------
  -5.000   0.2587   0.07438   0.07130  -0.0734  0.4926  0.0242  -1.5669   0.0001   0.5364
  -4.000   0.3140   0.06814   0.06496  -0.0762  0.4637  0.0257  -1.2634   0.0005   0.4921
  -2.000   1.6134   0.07520   0.06938  -0.3110  0.3802  0.2595  -2.0002   0.0138   0.4392
  -1.000   1.7144   0.07692   0.07102  -0.3087  0.3703  0.2867  -2.1378   0.0140   0.4243
   0.000   1.8124   0.07853   0.07259  -0.3059  0.3605  0.3075  -2.2821   0.0141   0.4108
   1.000   1.9072   0.08013   0.07422  -0.3028  0.3529  0.3357  -2.4278   0.0143   0.3985
   2.000   1.9988   0.08166   0.07575  -0.2992  0.3439  0.3717  -2.5710   0.0144   0.3872
   3.000   2.0863   0.08316   0.07741  -0.2950  0.3378  0.4124  -2.7215   0.0145   0.3767
   4.000   2.1675   0.08479   0.07915  -0.2901  0.3302  0.4533  -2.8789   0.0146   0.3668
   5.000   2.2439   0.08627   0.08072  -0.2845  0.3212  0.4951  -3.0491   0.0147   0.3574
   6.000   2.3129   0.08854   0.08320  -0.2782  0.3137  0.5000  -3.2341   0.0148   0.3484
   7.000   2.3710   0.09134   0.08607  -0.2706  0.3032  0.5000  -3.4297   0.0149   0.3397
   8.000   2.4269   0.09436   0.08935  -0.2632  0.2935  0.5000  -3.7016   0.0150   0.3313
   9.000   2.4697   0.09847   0.09365  -0.2546  0.2802  0.5000  -3.9848   0.0152   0.3232
  10.000   2.5043   0.10323   0.09859  -0.2459  0.2668  0.5000  -4.2659   0.0153   0.3154
  11.000   2.5311   0.10877   0.10434  -0.2374  0.2500  0.5000  -4.5484   0.0155   0.3081
  12.000   2.5353   0.11683   0.11256  -0.2289  0.2245  0.5000  -4.7864   0.0157   0.3013
  13.000   2.5019   0.12942   0.12525  -0.2219  0.1915  0.5000  -4.9313   0.0161   0.2961
  14.000   2.4438   0.14549   0.14150  -0.2199  0.1621  0.5000  -4.9955   0.0166   0.2935
  15.000   2.3812   0.16268   0.15896  -0.2233  0.1399  0.5000  -5.0276   0.0172   0.2932
  16.000   2.3195   0.18009   0.17659  -0.2303  0.1208  0.5000  -5.0394   0.0177   0.2946
  17.000   2.2724   0.19546   0.19212  -0.2383  0.1038  0.5000  -5.0834   0.0182   0.2960


