xflr5 v6.10.03

 Calculated polar for: S1223 MOD2015

 1 1 Reynolds number fixed          Mach number fixed         

 xtrf =   0.500 (top)        0.500 (bottom)
 Mach =   0.080     Re =     0.620 e 6     Ncrit =   9.000

  alpha     CL        CD       CDp       Cm    Top Xtr Bot Xtr   Cpmin    Chinge    XCp    
 ------- -------- --------- --------- -------- ------- ------- -------- --------- ---------
  -4.000   0.6568   0.01541   0.00874  -0.2528  0.4786  0.0201  -3.0144   0.0000   0.6413
  -3.000   0.8140   0.01425   0.00711  -0.2627  0.4451  0.0216  -2.2205   0.0000   0.5760
  -2.000   0.9514   0.01415   0.00666  -0.2676  0.4199  0.0229  -1.6243   0.0000   0.5321
  -1.000   1.0830   0.01423   0.00652  -0.2711  0.4028  0.0257  -1.5421   0.0000   0.4990
   0.000   1.2091   0.01451   0.00675  -0.2733  0.3896  0.0545  -1.6782   0.0000   0.4727
   1.000   1.3321   0.01508   0.00763  -0.2752  0.3779  0.2541  -1.8161   0.0000   0.4514
   2.000   1.4418   0.01576   0.00835  -0.2740  0.3695  0.2931  -1.9539   0.0000   0.4330
   3.000   1.5512   0.01683   0.00936  -0.2729  0.3597  0.3310  -2.0972   0.0000   0.4170
   4.000   1.6580   0.01760   0.01029  -0.2713  0.3533  0.3831  -2.2410   0.0000   0.4029
   5.000   1.7626   0.01866   0.01151  -0.2695  0.3461  0.4672  -2.3880   0.0000   0.3902
   6.000   1.8631   0.01996   0.01289  -0.2670  0.3383  0.5000  -2.5456   0.0000   0.3787
   7.000   1.9551   0.02118   0.01422  -0.2629  0.3311  0.5000  -2.7097   0.0000   0.3678
   8.000   2.0459   0.02292   0.01596  -0.2589  0.3220  0.5000  -2.8890   0.0000   0.3578
   9.000   2.1259   0.02441   0.01771  -0.2530  0.3149  0.5000  -3.0824   0.0000   0.3481
  10.000   2.2020   0.02657   0.01995  -0.2468  0.3048  0.5000  -3.2972   0.0000   0.3390
  11.000   2.2701   0.02865   0.02235  -0.2397  0.2958  0.5000  -3.5724   0.0000   0.3302
  12.000   2.3296   0.03152   0.02542  -0.2319  0.2827  0.5000  -3.8699   0.0000   0.3217
  13.000   2.3814   0.03524   0.02936  -0.2238  0.2692  0.5000  -4.1712   0.0000   0.3137
  14.000   2.4240   0.04005   0.03443  -0.2157  0.2534  0.5000  -4.4719   0.0000   0.3061
  15.000   2.4507   0.04681   0.04147  -0.2076  0.2342  0.5000  -4.7484   0.0000   0.2991
  16.000   2.4432   0.05816   0.05306  -0.1995  0.2115  0.5000  -4.9487   0.0000   0.2932
  17.000   2.3898   0.07752   0.07275  -0.1947  0.1854  0.5000  -5.0332   0.0000   0.2899


