xflr5 v6.10.03

 Calculated polar for: S1223 MOD2015 FLAP

 1 1 Reynolds number fixed          Mach number fixed         

 xtrf =   0.500 (top)        0.500 (bottom)
 Mach =   0.000     Re =     0.600 e 6     Ncrit =   9.000

  alpha     CL        CD       CDp       Cm    Top Xtr Bot Xtr   Cpmin    Chinge    XCp    
 ------- -------- --------- --------- -------- ------- ------- -------- --------- ---------
  -5.000   0.9514   0.05194   0.04655  -0.2520  0.4749  0.0269  -1.8070   0.0094   0.5189
  -4.000   1.2152   0.06054   0.05468  -0.2805  0.4350  0.0308  -1.5720   0.0114   0.4820
  -3.000   1.4863   0.07227   0.06627  -0.3088  0.4059  0.2180  -1.8374   0.0134   0.4565
  -2.000   1.5973   0.07451   0.06842  -0.3084  0.3926  0.2690  -1.9764   0.0136   0.4396
  -1.000   1.6992   0.07612   0.06993  -0.3064  0.3810  0.2966  -2.1130   0.0138   0.4246
   0.000   1.7976   0.07782   0.07162  -0.3038  0.3717  0.3182  -2.2569   0.0140   0.4110
   1.000   1.8947   0.07911   0.07286  -0.3011  0.3617  0.3482  -2.4023   0.0141   0.3987
   2.000   1.9859   0.08074   0.07462  -0.2975  0.3550  0.3847  -2.5439   0.0142   0.3874
   3.000   2.0722   0.08220   0.07613  -0.2933  0.3468  0.4260  -2.6934   0.0143   0.3769
   4.000   2.1554   0.08339   0.07746  -0.2888  0.3389  0.4685  -2.8508   0.0144   0.3670
   5.000   2.2289   0.08520   0.07946  -0.2830  0.3310  0.5000  -3.0172   0.0145   0.3576
   6.000   2.3035   0.08671   0.08103  -0.2776  0.3215  0.5000  -3.2068   0.0146   0.3488
   7.000   2.3601   0.08980   0.08438  -0.2700  0.3130  0.5000  -3.3995   0.0148   0.3401
   8.000   2.4107   0.09301   0.08773  -0.2621  0.3021  0.5000  -3.6597   0.0149   0.3317
   9.000   2.4474   0.09785   0.09283  -0.2530  0.2893  0.5000  -3.9280   0.0151   0.3236
  10.000   2.4823   0.10258   0.09785  -0.2445  0.2769  0.5000  -4.2053   0.0152   0.3158
  11.000   2.5078   0.10823   0.10376  -0.2362  0.2624  0.5000  -4.4790   0.0154   0.3085
  12.000   2.5184   0.11556   0.11134  -0.2281  0.2446  0.5000  -4.7264   0.0156   0.3017
  13.000   2.5052   0.12571   0.12171  -0.2212  0.2220  0.5000  -4.9164   0.0160   0.2960
  14.000   2.4635   0.13954   0.13575  -0.2176  0.1935  0.5000  -5.0267   0.0164   0.2923
  15.000   2.3990   0.15671   0.15315  -0.2197  0.1664  0.5000  -5.0626   0.0169   0.2914
  16.000   2.3298   0.17499   0.17162  -0.2264  0.1426  0.5000  -5.0577   0.0175   0.2928
  17.000   2.2755   0.19127   0.18803  -0.2347  0.1207  0.5000  -5.0809   0.0180   0.2945


