XFLR5 v6.09.06

 Calculated polar for: S1223 MOD2015

 1 1 Reynolds number fixed          Mach number fixed         

 xtrf =   1.000 (top)        1.000 (bottom)
 Mach =   0.000     Re =     0.260 e 6     Ncrit =   9.000

  alpha     CL        CD       CDp       Cm    Top Xtr Bot Xtr   Cpmin    Chinge    XCp    
 ------- -------- --------- --------- -------- ------- ------- -------- --------- ---------
 -10.000  -0.0385   0.13833   0.13524  -0.0553  0.9744  0.0254  -1.1301   0.0000  -1.3595
  -9.500  -0.0056   0.13121   0.12813  -0.0619  0.9670  0.0267  -1.1570   0.0000  -12.0686
  -9.000   0.0202   0.12390   0.12083  -0.0701  0.9586  0.0275  -1.3367   0.0000   4.0429
  -8.500   0.0602   0.11711   0.11407  -0.0741  0.9503  0.0284  -1.1869   0.0000   1.5813
  -8.000   0.0936   0.11052   0.10750  -0.0795  0.9401  0.0302  -1.1749   0.0000   1.1612
  -7.500   0.1169   0.10340   0.10040  -0.0858  0.9270  0.0318  -1.3275   0.0000   1.0313
  -7.000   0.1523   0.09747   0.09450  -0.0885  0.9118  0.0334  -1.2074   0.0000   0.8646
  -6.500   0.1555   0.09184   0.08891  -0.0938  0.8875  0.0361  -1.4691   0.0000   0.8839
  -6.000   0.2019   0.08551   0.08256  -0.0943  0.8578  0.0380  -1.2219   0.0000   0.7384
  -5.500   0.2946   0.07475   0.07148  -0.1159  0.8014  0.0427  -1.1912   0.0000   0.6579
  -4.500   0.3483   0.06556   0.06105  -0.1251  0.6044  0.0483  -1.1989   0.0000   0.6185
  -4.000   0.3574   0.06287   0.05813  -0.1221  0.5689  0.0506  -1.1338   0.0000   0.5991
  -3.500   0.3695   0.05672   0.05189  -0.1280  0.5478  0.0547  -1.2631   0.0000   0.6026
  -3.000   0.3955   0.05385   0.04889  -0.1273  0.5270  0.0575  -1.1338   0.0000   0.5759
  -2.500   0.5382   0.03462   0.02932  -0.1760  0.5096  0.0571  -1.5696   0.0000   0.5795
  -1.500   0.9879   0.01762   0.00904  -0.2632  0.4683  0.0425  -1.4326   0.0000   0.5163
  -1.000   1.0642   0.01775   0.00898  -0.2673  0.4568  0.0491  -1.5062   0.0000   0.5000
  -0.500   1.1505   0.01760   0.00911  -0.2740  0.4467  0.2141  -1.5876   0.0000   0.4859
   0.000   1.2119   0.01841   0.00979  -0.2747  0.4388  0.2676  -1.6523   0.0000   0.4735
   0.500   1.2665   0.01892   0.01028  -0.2740  0.4316  0.2961  -1.7151   0.0000   0.4622
   1.000   1.3245   0.01949   0.01072  -0.2740  0.4247  0.3211  -1.7827   0.0000   0.4519
   1.500   1.3930   0.02019   0.01129  -0.2765  0.4185  0.3416  -1.8589   0.0000   0.4425
   2.000   1.4511   0.02055   0.01173  -0.2767  0.4133  0.3570  -1.9298   0.0000   0.4338
   2.500   1.5095   0.02101   0.01220  -0.2770  0.4077  0.3771  -2.0022   0.0000   0.4258
   3.000   1.5715   0.02162   0.01274  -0.2781  0.4023  0.4020  -2.0785   0.0000   0.4183
   3.500   1.6354   0.02241   0.01359  -0.2797  0.3976  0.4343  -2.1548   0.0000   0.4115
   4.000   1.6889   0.02295   0.01431  -0.2791  0.3928  0.4758  -2.2257   0.0000   0.4048
   4.500   1.7448   0.02356   0.01506  -0.2791  0.3879  0.5306  -2.3033   0.0000   0.3985
   5.000   1.8041   0.02425   0.01588  -0.2798  0.3836  0.6077  -2.3881   0.0000   0.3926
   5.500   1.8669   0.02526   0.01709  -0.2813  0.3788  0.7440  -2.4768   0.0000   0.3872
   6.500   1.9452   0.02638   0.01858  -0.2744  0.3702  1.0000  -2.6215   0.0000   0.3757
   7.000   1.9947   0.02719   0.01937  -0.2732  0.3656  1.0000  -2.7117   0.0000   0.3706
   7.500   2.0534   0.02836   0.02041  -0.2741  0.3607  1.0000  -2.8145   0.0000   0.3660
   8.000   2.0910   0.02938   0.02166  -0.2707  0.3565  1.0000  -2.9015   0.0000   0.3610
   8.500   2.1260   0.03035   0.02279  -0.2668  0.3514  1.0000  -2.9905   0.0000   0.3559
   9.000   2.1653   0.03120   0.02370  -0.2638  0.3465  1.0000  -3.0862   0.0000   0.3512
   9.500   2.2252   0.03248   0.02487  -0.2652  0.3410  1.0000  -3.2249   0.0000   0.3474
  10.000   2.2359   0.03366   0.02640  -0.2567  0.3366  1.0000  -3.3021   0.0000   0.3420
  10.500   2.2588   0.03489   0.02783  -0.2509  0.3311  1.0000  -3.4234   0.0000   0.3371
  11.000   2.2937   0.03584   0.02881  -0.2475  0.3259  1.0000  -3.5752   0.0000   0.3327
  11.500   2.3196   0.03745   0.03057  -0.2427  0.3201  1.0000  -3.7124   0.0000   0.3283
  12.000   2.3259   0.03940   0.03284  -0.2347  0.3141  1.0000  -3.8210   0.0000   0.3234
  12.500   2.3473   0.04077   0.03429  -0.2295  0.3081  1.0000  -3.9623   0.0000   0.3191
  13.000   2.3587   0.04303   0.03674  -0.2232  0.3015  1.0000  -4.0851   0.0000   0.3147
  13.500   2.3562   0.04596   0.03997  -0.2156  0.2945  1.0000  -4.1813   0.0000   0.3103
  14.000   2.3758   0.04789   0.04189  -0.2113  0.2876  1.0000  -4.3288   0.0000   0.3064
  14.500   2.3581   0.05281   0.04726  -0.2038  0.2803  1.0000  -4.3974   0.0000   0.3025
  15.000   2.3613   0.05658   0.05117  -0.1992  0.2731  1.0000  -4.5103   0.0000   0.2991
  15.500   2.3482   0.06259   0.05750  -0.1946  0.2651  1.0000  -4.5844   0.0000   0.2962
  16.000   2.3419   0.06831   0.06336  -0.1914  0.2565  1.0000  -4.6731   0.0000   0.2936
  16.500   2.3125   0.07769   0.07311  -0.1891  0.2466  1.0000  -4.7026   0.0000   0.2921
  17.000   2.2892   0.08696   0.08254  -0.1883  0.2364  1.0000  -4.7433   0.0000   0.2910


