xflr5 v6.10.03

 Calculated polar for: S1223 MOD2015

 1 1 Reynolds number fixed          Mach number fixed         

 xtrf =   0.500 (top)        0.500 (bottom)
 Mach =   0.080     Re =     0.900 e 6     Ncrit =   9.000

  alpha     CL        CD       CDp       Cm    Top Xtr Bot Xtr   Cpmin    Chinge    XCp    
 ------- -------- --------- --------- -------- ------- ------- -------- --------- ---------
  -5.000   0.5402   0.01473   0.00889  -0.2520  0.4896  0.0162  -3.8662   0.0000   0.7273
  -4.000   0.7041   0.01328   0.00680  -0.2638  0.4511  0.0174  -2.9796   0.0000   0.6309
  -3.000   0.8447   0.01291   0.00608  -0.2695  0.4225  0.0183  -2.2272   0.0000   0.5723
  -2.000   0.9769   0.01288   0.00577  -0.2731  0.4000  0.0191  -1.6312   0.0000   0.5303
  -1.000   1.1031   0.01300   0.00572  -0.2752  0.3859  0.0207  -1.5611   0.0000   0.4982
   0.000   1.2235   0.01333   0.00595  -0.2762  0.3737  0.0261  -1.6947   0.0000   0.4724
   1.000   1.3515   0.01367   0.00663  -0.2792  0.3622  0.2227  -1.8368   0.0000   0.4514
   2.000   1.4608   0.01428   0.00733  -0.2778  0.3551  0.2746  -1.9753   0.0000   0.4331
   3.000   1.5683   0.01502   0.00810  -0.2762  0.3474  0.3125  -2.1195   0.0000   0.4172
   4.000   1.6730   0.01600   0.00913  -0.2742  0.3397  0.3601  -2.2619   0.0000   0.4031
   5.000   1.7769   0.01682   0.01014  -0.2721  0.3341  0.4316  -2.4076   0.0000   0.3905
   6.000   1.8754   0.01797   0.01139  -0.2692  0.3261  0.5000  -2.5650   0.0000   0.3789
   7.000   1.9693   0.01919   0.01269  -0.2655  0.3195  0.5000  -2.7304   0.0000   0.3681
   8.000   2.0589   0.02040   0.01401  -0.2610  0.3124  0.5000  -2.9104   0.0000   0.3580
   9.000   2.1415   0.02214   0.01582  -0.2556  0.3032  0.5000  -3.1072   0.0000   0.3484
  10.000   2.2243   0.02359   0.01746  -0.2505  0.2948  0.5000  -3.3333   0.0000   0.3394
  11.000   2.2983   0.02563   0.01965  -0.2443  0.2830  0.5000  -3.6257   0.0000   0.3308
  12.000   2.3648   0.02820   0.02235  -0.2373  0.2693  0.5000  -3.9404   0.0000   0.3225
  13.000   2.4240   0.03142   0.02573  -0.2299  0.2540  0.5000  -4.2587   0.0000   0.3145
  14.000   2.4703   0.03583   0.03030  -0.2217  0.2335  0.5000  -4.5754   0.0000   0.3068
  15.000   2.4801   0.04394   0.03844  -0.2110  0.1998  0.5000  -4.8203   0.0000   0.2995
  16.000   2.4445   0.05832   0.05291  -0.2007  0.1661  0.5000  -4.9595   0.0000   0.2936
  17.000   2.3841   0.07908   0.07402  -0.1963  0.1445  0.5000  -5.0260   0.0000   0.2908


