xflr5 v6.10.03

 Calculated polar for: S1223 MOD2015 FLAP

 1 1 Reynolds number fixed          Mach number fixed         

 xtrf =   0.500 (top)        0.500 (bottom)
 Mach =   0.000     Re =     0.640 e 6     Ncrit =   9.000

  alpha     CL        CD       CDp       Cm    Top Xtr Bot Xtr   Cpmin    Chinge    XCp    
 ------- -------- --------- --------- -------- ------- ------- -------- --------- ---------
  -5.000   0.9584   0.05221   0.04687  -0.2533  0.4697  0.0261  -1.8001   0.0095   0.5183
  -4.000   1.2274   0.06117   0.05532  -0.2827  0.4297  0.0299  -1.5822   0.0116   0.4815
  -3.000   1.4888   0.07236   0.06643  -0.3092  0.4030  0.2110  -1.8403   0.0135   0.4565
  -2.000   1.6001   0.07469   0.06866  -0.3089  0.3891  0.2669  -1.9800   0.0136   0.4395
  -1.000   1.7014   0.07630   0.07019  -0.3068  0.3786  0.2926  -2.1162   0.0138   0.4246
   0.000   1.7993   0.07800   0.07184  -0.3041  0.3686  0.3143  -2.2598   0.0140   0.4111
   1.000   1.8958   0.07945   0.07332  -0.3013  0.3598  0.3449  -2.4049   0.0141   0.3988
   2.000   1.9869   0.08101   0.07497  -0.2978  0.3526  0.3808  -2.5468   0.0143   0.3875
   3.000   2.0757   0.08213   0.07608  -0.2939  0.3430  0.4228  -2.6978   0.0143   0.3769
   4.000   2.1558   0.08377   0.07794  -0.2890  0.3368  0.4645  -2.8526   0.0145   0.3671
   5.000   2.2296   0.08552   0.07983  -0.2832  0.3285  0.5000  -3.0194   0.0146   0.3577
   6.000   2.3027   0.08723   0.08166  -0.2776  0.3198  0.5000  -3.2070   0.0147   0.3488
   7.000   2.3594   0.09029   0.08493  -0.2701  0.3109  0.5000  -3.3999   0.0148   0.3401
   8.000   2.4116   0.09339   0.08820  -0.2623  0.3003  0.5000  -3.6625   0.0149   0.3318
   9.000   2.4490   0.09804   0.09301  -0.2533  0.2864  0.5000  -3.9325   0.0151   0.3236
  10.000   2.4866   0.10252   0.09781  -0.2450  0.2745  0.5000  -4.2151   0.0152   0.3159
  11.000   2.5136   0.10798   0.10353  -0.2368  0.2596  0.5000  -4.4932   0.0154   0.3085
  12.000   2.5239   0.11529   0.11106  -0.2286  0.2412  0.5000  -4.7407   0.0156   0.3017
  13.000   2.5082   0.12572   0.12168  -0.2215  0.2158  0.5000  -4.9258   0.0160   0.2960
  14.000   2.4593   0.14047   0.13661  -0.2181  0.1855  0.5000  -5.0176   0.0164   0.2926
  15.000   2.3901   0.15834   0.15469  -0.2207  0.1588  0.5000  -5.0384   0.0170   0.2921
  16.000   2.3270   0.17579   0.17236  -0.2272  0.1357  0.5000  -5.0505   0.0175   0.2932
  17.000   2.2746   0.19181   0.18853  -0.2353  0.1157  0.5000  -5.0793   0.0180   0.2948


