xflr5 v6.10.03

 Calculated polar for: S1223 MOD2015 FLAP

 1 1 Reynolds number fixed          Mach number fixed         

 xtrf =   0.500 (top)        0.500 (bottom)
 Mach =   0.080     Re =     0.480 e 6     Ncrit =   9.000

  alpha     CL        CD       CDp       Cm    Top Xtr Bot Xtr   Cpmin    Chinge    XCp    
 ------- -------- --------- --------- -------- ------- ------- -------- --------- ---------
  -3.000   1.4830   0.07184   0.06571  -0.3081  0.4187  0.2385  -1.8366   0.0133   0.4565
  -2.000   1.5904   0.07356   0.06722  -0.3069  0.4028  0.2802  -1.9718   0.0134   0.4394
  -1.000   1.6929   0.07523   0.06884  -0.3048  0.3916  0.3069  -2.1098   0.0136   0.4243
   0.000   1.7985   0.07661   0.07011  -0.3032  0.3808  0.3295  -2.2598   0.0138   0.4107
   1.000   1.8962   0.07834   0.07188  -0.3005  0.3721  0.3591  -2.4063   0.0139   0.3983
   2.000   1.9971   0.07883   0.07234  -0.2982  0.3622  0.3982  -2.5568   0.0140   0.3870
   3.000   2.0802   0.08070   0.07444  -0.2933  0.3554  0.4386  -2.7048   0.0142   0.3764
   4.000   2.1594   0.08219   0.07603  -0.2880  0.3467  0.4806  -2.8601   0.0143   0.3665
   5.000   2.2409   0.08364   0.07765  -0.2833  0.3383  0.5000  -3.0360   0.0144   0.3572
   6.000   2.3081   0.08615   0.08034  -0.2768  0.3293  0.5000  -3.2186   0.0146   0.3482
   7.000   2.3727   0.08821   0.08256  -0.2701  0.3195  0.5000  -3.4230   0.0147   0.3396
   8.000   2.4150   0.09249   0.08711  -0.2610  0.3092  0.5000  -3.6710   0.0149   0.3311
   9.000   2.4522   0.09709   0.09199  -0.2519  0.2970  0.5000  -3.9401   0.0151   0.3230
  10.000   2.4752   0.10324   0.09838  -0.2423  0.2835  0.5000  -4.1969   0.0153   0.3152
  11.000   2.4935   0.10991   0.10535  -0.2336  0.2695  0.5000  -4.4538   0.0155   0.3079
  12.000   2.4968   0.11838   0.11415  -0.2257  0.2526  0.5000  -4.6843   0.0158   0.3013
  13.000   2.4853   0.12862   0.12475  -0.2196  0.2331  0.5000  -4.8757   0.0161   0.2959
  14.000   2.4520   0.14162   0.13806  -0.2169  0.2102  0.5000  -5.0030   0.0165   0.2922
  15.000   2.3951   0.15796   0.15465  -0.2191  0.1855  0.5000  -5.0562   0.0170   0.2912
  16.000   2.3314   0.17547   0.17234  -0.2257  0.1608  0.5000  -5.0649   0.0175   0.2923
  17.000   2.2809   0.19121   0.18826  -0.2338  0.1379  0.5000  -5.0997   0.0180   0.2938


