xflr5 v6.10.03

 Calculated polar for: S1223 MOD2015 FLAP

 1 1 Reynolds number fixed          Mach number fixed         

 xtrf =   0.500 (top)        0.500 (bottom)
 Mach =   0.000     Re =     0.660 e 6     Ncrit =   9.000

  alpha     CL        CD       CDp       Cm    Top Xtr Bot Xtr   Cpmin    Chinge    XCp    
 ------- -------- --------- --------- -------- ------- ------- -------- --------- ---------
  -5.000   0.9625   0.05236   0.04704  -0.2540  0.4676  0.0258  -1.7993   0.0095   0.5179
  -4.000   1.2317   0.06138   0.05553  -0.2835  0.4269  0.0294  -1.5858   0.0116   0.4814
  -3.000   1.4896   0.07236   0.06647  -0.3094  0.4018  0.2078  -1.8414   0.0135   0.4564
  -2.000   1.6014   0.07476   0.06876  -0.3092  0.3872  0.2657  -1.9817   0.0137   0.4395
  -1.000   1.7028   0.07638   0.07032  -0.3070  0.3773  0.2917  -2.1179   0.0138   0.4246
   0.000   1.8004   0.07808   0.07194  -0.3043  0.3670  0.3134  -2.2614   0.0140   0.4111
   1.000   1.8965   0.07957   0.07348  -0.3015  0.3588  0.3434  -2.4063   0.0142   0.3988
   2.000   1.9876   0.08112   0.07511  -0.2979  0.3514  0.3794  -2.5484   0.0143   0.3875
   3.000   2.0764   0.08223   0.07622  -0.2941  0.3420  0.4212  -2.6991   0.0144   0.3770
   4.000   2.1563   0.08392   0.07813  -0.2891  0.3357  0.4625  -2.8538   0.0145   0.3671
   5.000   2.2302   0.08563   0.07995  -0.2834  0.3272  0.5000  -3.0206   0.0146   0.3577
   6.000   2.3028   0.08742   0.08189  -0.2777  0.3189  0.5000  -3.2078   0.0147   0.3488
   7.000   2.3594   0.09046   0.08512  -0.2701  0.3099  0.5000  -3.4006   0.0148   0.3401
   8.000   2.4126   0.09350   0.08834  -0.2625  0.2994  0.5000  -3.6648   0.0149   0.3318
   9.000   2.4508   0.09803   0.09302  -0.2535  0.2852  0.5000  -3.9363   0.0151   0.3236
  10.000   2.4884   0.10251   0.09780  -0.2453  0.2733  0.5000  -4.2195   0.0152   0.3159
  11.000   2.5160   0.10789   0.10343  -0.2370  0.2582  0.5000  -4.4993   0.0154   0.3086
  12.000   2.5249   0.11535   0.11110  -0.2288  0.2391  0.5000  -4.7439   0.0156   0.3018
  13.000   2.5092   0.12575   0.12168  -0.2217  0.2119  0.5000  -4.9293   0.0160   0.2960
  14.000   2.4583   0.14076   0.13686  -0.2183  0.1811  0.5000  -5.0158   0.0164   0.2926
  15.000   2.3916   0.15829   0.15462  -0.2208  0.1551  0.5000  -5.0436   0.0170   0.2921
  16.000   2.3231   0.17655   0.17308  -0.2277  0.1327  0.5000  -5.0387   0.0175   0.2936
  17.000   2.2761   0.19176   0.18846  -0.2353  0.1136  0.5000  -5.0853   0.0180   0.2947


