xflr5 v6.10.03

 Calculated polar for: S1223 MOD2015

 1 1 Reynolds number fixed          Mach number fixed         

 xtrf =   0.500 (top)        0.500 (bottom)
 Mach =   0.080     Re =     0.820 e 6     Ncrit =   9.000

  alpha     CL        CD       CDp       Cm    Top Xtr Bot Xtr   Cpmin    Chinge    XCp    
 ------- -------- --------- --------- -------- ------- ------- -------- --------- ---------
  -5.000   0.5215   0.01562   0.00980  -0.2473  0.4998  0.0166  -3.8729   0.0000   0.7352
  -4.000   0.6933   0.01371   0.00721  -0.2613  0.4574  0.0180  -2.9871   0.0000   0.6332
  -3.000   0.8360   0.01323   0.00635  -0.2675  0.4288  0.0191  -2.2216   0.0000   0.5732
  -2.000   0.9697   0.01316   0.00598  -0.2715  0.4062  0.0198  -1.6315   0.0000   0.5308
  -1.000   1.0983   0.01326   0.00590  -0.2743  0.3904  0.0219  -1.5566   0.0000   0.4984
   0.000   1.2183   0.01367   0.00616  -0.2751  0.3769  0.0277  -1.6894   0.0000   0.4725
   1.000   1.3473   0.01391   0.00680  -0.2783  0.3671  0.2294  -1.8326   0.0000   0.4514
   2.000   1.4546   0.01471   0.00761  -0.2765  0.3579  0.2773  -1.9687   0.0000   0.4331
   3.000   1.5634   0.01538   0.00837  -0.2752  0.3509  0.3167  -2.1136   0.0000   0.4171
   4.000   1.6677   0.01647   0.00945  -0.2732  0.3417  0.3646  -2.2555   0.0000   0.4030
   5.000   1.7721   0.01732   0.01053  -0.2712  0.3368  0.4401  -2.4015   0.0000   0.3904
   6.000   1.8714   0.01835   0.01169  -0.2684  0.3296  0.5000  -2.5597   0.0000   0.3788
   7.000   1.9640   0.01981   0.01316  -0.2645  0.3214  0.5000  -2.7234   0.0000   0.3680
   8.000   2.0533   0.02099   0.01450  -0.2600  0.3149  0.5000  -2.9027   0.0000   0.3579
   9.000   2.1348   0.02282   0.01637  -0.2545  0.3050  0.5000  -3.0978   0.0000   0.3483
  10.000   2.2166   0.02431   0.01810  -0.2492  0.2976  0.5000  -3.3216   0.0000   0.3393
  11.000   2.2871   0.02658   0.02048  -0.2424  0.2860  0.5000  -3.6054   0.0000   0.3305
  12.000   2.3537   0.02908   0.02315  -0.2356  0.2721  0.5000  -3.9188   0.0000   0.3222
  13.000   2.4143   0.03222   0.02651  -0.2285  0.2584  0.5000  -4.2389   0.0000   0.3143
  14.000   2.4567   0.03699   0.03143  -0.2199  0.2392  0.5000  -4.5454   0.0000   0.3066
  15.000   2.4774   0.04417   0.03875  -0.2106  0.2124  0.5000  -4.8124   0.0000   0.2994
  16.000   2.4486   0.05773   0.05241  -0.2006  0.1784  0.5000  -4.9674   0.0000   0.2935
  17.000   2.3766   0.08003   0.07502  -0.1960  0.1530  0.5000  -5.0055   0.0000   0.2909


