xflr5 v6.10.03

 Calculated polar for: S1223 MOD2015 FLAP

 1 1 Reynolds number fixed          Mach number fixed         

 xtrf =   0.500 (top)        0.500 (bottom)
 Mach =   0.080     Re =     0.400 e 6     Ncrit =   9.000

  alpha     CL        CD       CDp       Cm    Top Xtr Bot Xtr   Cpmin    Chinge    XCp    
 ------- -------- --------- --------- -------- ------- ------- -------- --------- ---------
  -5.000   0.9325   0.05115   0.04543  -0.2493  0.5000  0.0328  -1.8364   0.0091   0.5214
  -4.000   1.1363   0.05629   0.05021  -0.2661  0.4660  0.0374  -1.5109   0.0105   0.4854
  -3.000   1.4768   0.07084   0.06444  -0.3070  0.4293  0.2497  -1.8283   0.0131   0.4567
  -2.000   1.5794   0.07216   0.06566  -0.3049  0.4141  0.2910  -1.9583   0.0131   0.4396
  -1.000   1.6917   0.07344   0.06675  -0.3043  0.4013  0.3166  -2.1043   0.0133   0.4242
   0.000   1.7968   0.07521   0.06849  -0.3027  0.3905  0.3401  -2.2539   0.0136   0.4106
   1.000   1.9022   0.07599   0.06926  -0.3010  0.3807  0.3708  -2.4061   0.0137   0.3982
   2.000   1.9947   0.07763   0.07102  -0.2975  0.3717  0.4090  -2.5490   0.0139   0.3869
   3.000   2.0944   0.07767   0.07104  -0.2950  0.3623  0.4518  -2.7143   0.0139   0.3764
   4.000   2.1668   0.07971   0.07339  -0.2887  0.3545  0.4933  -2.8617   0.0140   0.3665
   5.000   2.2505   0.08147   0.07521  -0.2843  0.3454  0.5000  -3.0425   0.0142   0.3572
   6.000   2.3180   0.08387   0.07787  -0.2778  0.3364  0.5000  -3.2250   0.0144   0.3483
   7.000   2.3759   0.08662   0.08077  -0.2702  0.3263  0.5000  -3.4226   0.0146   0.3396
   8.000   2.4243   0.09004   0.08452  -0.2619  0.3159  0.5000  -3.6806   0.0147   0.3312
   9.000   2.4649   0.09395   0.08856  -0.2530  0.3034  0.5000  -3.9573   0.0149   0.3231
  10.000   2.4714   0.10195   0.09703  -0.2415  0.2902  0.5000  -4.1821   0.0152   0.3151
  11.000   2.4851   0.10908   0.10455  -0.2325  0.2764  0.5000  -4.4273   0.0155   0.3078
  12.000   2.4867   0.11780   0.11364  -0.2245  0.2608  0.5000  -4.6526   0.0157   0.3013
  13.000   2.4708   0.12876   0.12494  -0.2185  0.2415  0.5000  -4.8329   0.0161   0.2959
  14.000   2.4343   0.14233   0.13876  -0.2160  0.2198  0.5000  -4.9503   0.0165   0.2925
  15.000   2.3832   0.15811   0.15490  -0.2184  0.1955  0.5000  -5.0153   0.0170   0.2913
  16.000   2.3247   0.17496   0.17194  -0.2247  0.1706  0.5000  -5.0384   0.0175   0.2922
  17.000   2.2751   0.19059   0.18768  -0.2328  0.1472  0.5000  -5.0733   0.0180   0.2936


