xflr5 v6.10.03

 Calculated polar for: S1223 MOD2015

 1 1 Reynolds number fixed          Mach number fixed         

 xtrf =   0.500 (top)        0.500 (bottom)
 Mach =   0.080     Re =     0.520 e 6     Ncrit =   9.000

  alpha     CL        CD       CDp       Cm    Top Xtr Bot Xtr   Cpmin    Chinge    XCp    
 ------- -------- --------- --------- -------- ------- ------- -------- --------- ---------
  -4.000   0.6394   0.01632   0.00971  -0.2490  0.4932  0.0221  -2.9796   0.0000   0.6460
  -3.000   0.7966   0.01508   0.00776  -0.2587  0.4572  0.0235  -2.2452   0.0000   0.5782
  -2.000   0.9429   0.01467   0.00706  -0.2658  0.4316  0.0255  -1.6099   0.0000   0.5328
  -1.000   1.0757   0.01481   0.00692  -0.2696  0.4127  0.0285  -1.5341   0.0000   0.4993
   0.000   1.2127   0.01505   0.00726  -0.2744  0.3974  0.1512  -1.6771   0.0000   0.4730
   1.000   1.3252   0.01573   0.00810  -0.2738  0.3864  0.2676  -1.8079   0.0000   0.4514
   2.000   1.4363   0.01666   0.00896  -0.2729  0.3767  0.3039  -1.9454   0.0000   0.4330
   3.000   1.5455   0.01746   0.00980  -0.2717  0.3682  0.3410  -2.0888   0.0000   0.4169
   4.000   1.6574   0.01862   0.01100  -0.2713  0.3590  0.3966  -2.2352   0.0000   0.4030
   5.000   1.7631   0.01959   0.01224  -0.2697  0.3527  0.4872  -2.3838   0.0000   0.3903
   6.000   1.8620   0.02086   0.01350  -0.2668  0.3444  0.5000  -2.5410   0.0000   0.3787
   7.000   1.9575   0.02231   0.01506  -0.2635  0.3370  0.5000  -2.7076   0.0000   0.3680
   8.000   2.0432   0.02376   0.01664  -0.2584  0.3290  0.5000  -2.8826   0.0000   0.3578
   9.000   2.1289   0.02567   0.01867  -0.2538  0.3203  0.5000  -3.0815   0.0000   0.3483
  10.000   2.1998   0.02759   0.02085  -0.2466  0.3114  0.5000  -3.2907   0.0000   0.3390
  11.000   2.2658   0.03012   0.02358  -0.2391  0.3012  0.5000  -3.5615   0.0000   0.3302
  12.000   2.3184   0.03318   0.02686  -0.2303  0.2887  0.5000  -3.8459   0.0000   0.3215
  13.000   2.3672   0.03690   0.03092  -0.2219  0.2753  0.5000  -4.1407   0.0000   0.3134
  14.000   2.4069   0.04193   0.03627  -0.2136  0.2607  0.5000  -4.4322   0.0000   0.3059
  15.000   2.4258   0.04944   0.04404  -0.2051  0.2424  0.5000  -4.6902   0.0000   0.2990
  16.000   2.4204   0.06078   0.05572  -0.1978  0.2220  0.5000  -4.8922   0.0000   0.2933
  17.000   2.3731   0.07952   0.07482  -0.1938  0.1986  0.5000  -4.9871   0.0000   0.2901


