XFLR5 v6.09.06

 Calculated polar for: S1223 MOD2015

 1 1 Reynolds number fixed          Mach number fixed         

 xtrf =   1.000 (top)        1.000 (bottom)
 Mach =   0.000     Re =     0.400 e 6     Ncrit =   9.000

  alpha     CL        CD       CDp       Cm    Top Xtr Bot Xtr   Cpmin    Chinge    XCp    
 ------- -------- --------- --------- -------- ------- ------- -------- --------- ---------
 -10.000   0.0230   0.12877   0.12613  -0.0735  0.9629  0.0199  -1.2379   0.0000   3.7598
  -9.000   0.0842   0.11493   0.11232  -0.0841  0.9504  0.0204  -1.2633   0.0000   1.3301
  -8.500   0.1157   0.10893   0.10634  -0.0882  0.9418  0.0210  -1.1966   0.0000   1.0682
  -8.000   0.1525   0.10212   0.09954  -0.0946  0.9345  0.0222  -1.1883   0.0000   0.9109
  -6.500   0.2309   0.08371   0.08110  -0.1053  0.8598  0.0260  -1.2738   0.0000   0.7276
  -6.000   0.3605   0.07147   0.06793  -0.1372  0.7249  0.0294  -1.2229   0.0000   0.6451
  -5.500   0.3300   0.06810   0.06412  -0.1324  0.6316  0.0317  -1.5030   0.0000   0.6650
  -5.000   0.3372   0.06698   0.06268  -0.1257  0.5726  0.0325  -1.3134   0.0000   0.6345
  -4.500   0.3334   0.06492   0.06053  -0.1204  0.5434  0.0339  -1.2699   0.0000   0.6209
  -4.000   0.6032   0.01852   0.01204  -0.2400  0.5219  0.0260  -2.8795   0.0000   0.6547
  -3.500   0.7037   0.01666   0.00944  -0.2506  0.4962  0.0265  -2.5723   0.0000   0.6109
  -3.000   0.7803   0.01611   0.00853  -0.2550  0.4777  0.0272  -2.2276   0.0000   0.5802
  -2.500   0.8564   0.01579   0.00798  -0.2593  0.4617  0.0282  -1.8695   0.0000   0.5549
  -2.000   0.9270   0.01565   0.00775  -0.2623  0.4494  0.0302  -1.5703   0.0000   0.5339
  -1.000   1.0651   0.01575   0.00754  -0.2674  0.4283  0.0342  -1.5169   0.0000   0.4998
   0.000   1.2063   0.01595   0.00796  -0.2734  0.4126  0.2118  -1.6608   0.0000   0.4734
   0.500   1.2605   0.01641   0.00842  -0.2727  0.4058  0.2606  -1.7228   0.0000   0.4621
   1.000   1.3191   0.01703   0.00892  -0.2729  0.3991  0.2847  -1.7910   0.0000   0.4518
   1.500   1.3741   0.01738   0.00929  -0.2724  0.3948  0.3039  -1.8569   0.0000   0.4422
   2.000   1.4294   0.01779   0.00969  -0.2719  0.3899  0.3222  -1.9271   0.0000   0.4333
   2.500   1.4857   0.01822   0.01010  -0.2718  0.3848  0.3393  -1.9992   0.0000   0.4251
   3.000   1.5484   0.01890   0.01070  -0.2731  0.3792  0.3616  -2.0760   0.0000   0.4176
   3.500   1.6023   0.01929   0.01123  -0.2724  0.3760  0.3878  -2.1463   0.0000   0.4103
   4.000   1.6557   0.01976   0.01180  -0.2718  0.3716  0.4217  -2.2170   0.0000   0.4035
   4.500   1.7097   0.02028   0.01242  -0.2713  0.3675  0.4668  -2.2906   0.0000   0.3971
   5.000   1.7664   0.02092   0.01313  -0.2715  0.3634  0.5252  -2.3717   0.0000   0.3911
   5.500   1.8282   0.02171   0.01407  -0.2728  0.3589  0.6089  -2.4591   0.0000   0.3857
   6.000   1.8778   0.02223   0.01493  -0.2714  0.3553  0.7405  -2.5393   0.0000   0.3800
   7.000   1.9590   0.02325   0.01618  -0.2652  0.3474  1.0000  -2.6925   0.0000   0.3688
   7.500   2.0104   0.02415   0.01701  -0.2645  0.3426  1.0000  -2.7881   0.0000   0.3640
   8.000   2.0551   0.02505   0.01800  -0.2625  0.3387  1.0000  -2.8788   0.0000   0.3591
   8.500   2.0927   0.02587   0.01896  -0.2591  0.3345  1.0000  -2.9715   0.0000   0.3541
   9.000   2.1309   0.02675   0.01992  -0.2560  0.3300  1.0000  -3.0658   0.0000   0.3493
   9.500   2.1707   0.02773   0.02089  -0.2532  0.3253  1.0000  -3.1713   0.0000   0.3448
  10.000   2.2101   0.02891   0.02218  -0.2506  0.3204  1.0000  -3.2866   0.0000   0.3404
  10.500   2.2379   0.03009   0.02356  -0.2458  0.3158  1.0000  -3.4070   0.0000   0.3357
  11.000   2.2652   0.03130   0.02488  -0.2411  0.3104  1.0000  -3.5453   0.0000   0.3311
  11.500   2.3014   0.03270   0.02625  -0.2383  0.3043  1.0000  -3.7003   0.0000   0.3270
  12.000   2.3168   0.03444   0.02829  -0.2320  0.2993  1.0000  -3.8251   0.0000   0.3225
  12.500   2.3341   0.03626   0.03027  -0.2265  0.2925  1.0000  -3.9582   0.0000   0.3181
  13.000   2.3536   0.03842   0.03251  -0.2218  0.2858  1.0000  -4.0959   0.0000   0.3141
  13.500   2.3684   0.04088   0.03524  -0.2168  0.2790  1.0000  -4.2253   0.0000   0.3101
  14.000   2.3819   0.04375   0.03819  -0.2122  0.2721  1.0000  -4.3606   0.0000   0.3063
  14.500   2.3941   0.04699   0.04170  -0.2079  0.2646  1.0000  -4.4924   0.0000   0.3028
  15.000   2.3978   0.05121   0.04601  -0.2035  0.2561  1.0000  -4.6073   0.0000   0.2994
  15.500   2.4009   0.05591   0.05097  -0.1998  0.2466  1.0000  -4.7195   0.0000   0.2964
  16.000   2.3932   0.06217   0.05737  -0.1964  0.2370  1.0000  -4.8067   0.0000   0.2937
  16.500   2.3769   0.07006   0.06545  -0.1938  0.2262  1.0000  -4.8714   0.0000   0.2917
  17.000   2.3538   0.07956   0.07518  -0.1924  0.2151  1.0000  -4.9163   0.0000   0.2903


