xflr5 v6.10.03

 Calculated polar for: S1223 MOD2015

 1 1 Reynolds number fixed          Mach number fixed         

 xtrf =   0.500 (top)        0.500 (bottom)
 Mach =   0.000     Re =     0.640 e 6     Ncrit =   9.000

  alpha     CL        CD       CDp       Cm    Top Xtr Bot Xtr   Cpmin    Chinge    XCp    
 ------- -------- --------- --------- -------- ------- ------- -------- --------- ---------
  -5.000   0.3291   0.06564   0.06143  -0.1244  0.5000  0.0223  -1.4403   0.0000   0.6400
  -4.000   0.3225   0.05609   0.05198  -0.1217  0.4852  0.0243  -1.6443   0.0000   0.6363
  -3.000   0.8172   0.01404   0.00691  -0.2632  0.4442  0.0213  -2.1953   0.0000   0.5754
  -2.000   0.9531   0.01394   0.00649  -0.2679  0.4194  0.0226  -1.6106   0.0000   0.5319
  -1.000   1.0826   0.01407   0.00638  -0.2710  0.4019  0.0252  -1.5370   0.0000   0.4990
   0.000   1.2077   0.01432   0.00659  -0.2731  0.3889  0.0538  -1.6721   0.0000   0.4729
   1.000   1.3304   0.01485   0.00745  -0.2752  0.3773  0.2531  -1.8092   0.0000   0.4517
   2.000   1.4394   0.01553   0.00815  -0.2739  0.3688  0.2920  -1.9459   0.0000   0.4333
   3.000   1.5476   0.01654   0.00913  -0.2727  0.3593  0.3301  -2.0876   0.0000   0.4173
   4.000   1.6541   0.01730   0.01004  -0.2712  0.3527  0.3824  -2.2305   0.0000   0.4032
   5.000   1.7580   0.01836   0.01124  -0.2694  0.3454  0.4662  -2.3759   0.0000   0.3906
   6.000   1.8575   0.01959   0.01257  -0.2668  0.3379  0.5000  -2.5319   0.0000   0.3791
   7.000   1.9494   0.02078   0.01385  -0.2629  0.3308  0.5000  -2.6949   0.0000   0.3682
   8.000   2.0393   0.02247   0.01555  -0.2589  0.3218  0.5000  -2.8721   0.0000   0.3583
   9.000   2.1200   0.02390   0.01721  -0.2533  0.3146  0.5000  -3.0653   0.0000   0.3486
  10.000   2.1966   0.02603   0.01941  -0.2474  0.3044  0.5000  -3.2795   0.0000   0.3396
  11.000   2.2657   0.02794   0.02165  -0.2406  0.2957  0.5000  -3.5564   0.0000   0.3308
  12.000   2.3266   0.03066   0.02456  -0.2331  0.2825  0.5000  -3.8546   0.0000   0.3224
  13.000   2.3795   0.03419   0.02829  -0.2252  0.2693  0.5000  -4.1557   0.0000   0.3144
  14.000   2.4241   0.03869   0.03304  -0.2173  0.2535  0.5000  -4.4591   0.0000   0.3068
  15.000   2.4538   0.04496   0.03957  -0.2092  0.2345  0.5000  -4.7398   0.0000   0.2998
  16.000   2.4480   0.05574   0.05055  -0.2006  0.2104  0.5000  -4.9431   0.0000   0.2936
  17.000   2.3965   0.07435   0.06944  -0.1950  0.1826  0.5000  -5.0346   0.0000   0.2900


