xflr5 v6.10.03

 Calculated polar for: S1223 MOD2015 FLAP

 1 1 Reynolds number fixed          Mach number fixed         

 xtrf =   0.500 (top)        0.500 (bottom)
 Mach =   0.080     Re =     0.420 e 6     Ncrit =   9.000

  alpha     CL        CD       CDp       Cm    Top Xtr Bot Xtr   Cpmin    Chinge    XCp    
 ------- -------- --------- --------- -------- ------- ------- -------- --------- ---------
  -5.000   0.9408   0.05138   0.04568  -0.2508  0.5000  0.0319  -1.8199   0.0092   0.5206
  -4.000   1.1355   0.05636   0.05033  -0.2659  0.4625  0.0363  -1.5111   0.0105   0.4854
  -3.000   1.4800   0.07111   0.06471  -0.3076  0.4258  0.2469  -1.8317   0.0131   0.4566
  -2.000   1.5814   0.07260   0.06615  -0.3053  0.4110  0.2881  -1.9613   0.0132   0.4396
  -1.000   1.6903   0.07401   0.06742  -0.3042  0.3988  0.3137  -2.1042   0.0134   0.4243
   0.000   1.7966   0.07564   0.06893  -0.3027  0.3877  0.3368  -2.2553   0.0136   0.4106
   1.000   1.9006   0.07667   0.07004  -0.3009  0.3784  0.3676  -2.4062   0.0138   0.3982
   2.000   1.9935   0.07826   0.07169  -0.2974  0.3694  0.4061  -2.5496   0.0139   0.3869
   3.000   2.0904   0.07862   0.07210  -0.2946  0.3608  0.4488  -2.7117   0.0140   0.3764
   4.000   2.1648   0.08054   0.07427  -0.2886  0.3524  0.4908  -2.8614   0.0141   0.3665
   5.000   2.2584   0.08098   0.07469  -0.2855  0.3423  0.5000  -3.0528   0.0142   0.3573
   6.000   2.3139   0.08462   0.07869  -0.2773  0.3344  0.5000  -3.2215   0.0144   0.3482
   7.000   2.3802   0.08646   0.08059  -0.2709  0.3238  0.5000  -3.4302   0.0146   0.3397
   8.000   2.4216   0.09072   0.08525  -0.2616  0.3140  0.5000  -3.6777   0.0148   0.3312
   9.000   2.4591   0.09507   0.08978  -0.2525  0.3020  0.5000  -3.9482   0.0150   0.3230
  10.000   2.4721   0.10233   0.09740  -0.2417  0.2883  0.5000  -4.1859   0.0152   0.3151
  11.000   2.4874   0.10935   0.10483  -0.2328  0.2746  0.5000  -4.4345   0.0155   0.3078
  12.000   2.4898   0.11794   0.11378  -0.2248  0.2586  0.5000  -4.6622   0.0157   0.3013
  13.000   2.4743   0.12881   0.12496  -0.2188  0.2392  0.5000  -4.8436   0.0161   0.2959
  14.000   2.4394   0.14212   0.13858  -0.2163  0.2176  0.5000  -4.9654   0.0165   0.2924
  15.000   2.3858   0.15816   0.15492  -0.2186  0.1927  0.5000  -5.0249   0.0170   0.2913
  16.000   2.3278   0.17493   0.17190  -0.2249  0.1681  0.5000  -5.0496   0.0175   0.2921
  17.000   2.2760   0.19083   0.18787  -0.2331  0.1448  0.5000  -5.0784   0.0180   0.2937


