xflr5 v6.10.03

 Calculated polar for: S1223 MOD2015 FLAP

 1 1 Reynolds number fixed          Mach number fixed         

 xtrf =   0.500 (top)        0.500 (bottom)
 Mach =   0.000     Re =     0.480 e 6     Ncrit =   9.000

  alpha     CL        CD       CDp       Cm    Top Xtr Bot Xtr   Cpmin    Chinge    XCp    
 ------- -------- --------- --------- -------- ------- ------- -------- --------- ---------
  -5.000   0.9398   0.05141   0.04587  -0.2501  0.4935  0.0299  -1.8180   0.0092   0.5202
  -4.000   1.1788   0.05866   0.05264  -0.2739  0.4510  0.0344  -1.5412   0.0110   0.4836
  -3.000   1.4796   0.07169   0.06555  -0.3077  0.4198  0.2398  -1.8282   0.0133   0.4567
  -2.000   1.5860   0.07334   0.06699  -0.3064  0.4035  0.2809  -1.9621   0.0134   0.4397
  -1.000   1.6881   0.07502   0.06863  -0.3044  0.3925  0.3073  -2.0989   0.0135   0.4246
   0.000   1.7933   0.07634   0.06983  -0.3028  0.3814  0.3301  -2.2478   0.0137   0.4109
   1.000   1.8904   0.07808   0.07161  -0.3001  0.3728  0.3600  -2.3928   0.0139   0.3986
   2.000   1.9916   0.07844   0.07192  -0.2980  0.3626  0.3993  -2.5430   0.0140   0.3873
   3.000   2.0736   0.08035   0.07407  -0.2931  0.3562  0.4396  -2.6888   0.0141   0.3768
   4.000   2.1515   0.08190   0.07574  -0.2878  0.3476  0.4817  -2.8418   0.0142   0.3669
   5.000   2.2340   0.08317   0.07714  -0.2833  0.3390  0.5000  -3.0177   0.0143   0.3576
   6.000   2.3007   0.08564   0.07981  -0.2769  0.3302  0.5000  -3.1985   0.0145   0.3487
   7.000   2.3663   0.08751   0.08181  -0.2705  0.3203  0.5000  -3.4033   0.0146   0.3401
   8.000   2.4088   0.09171   0.08630  -0.2615  0.3102  0.5000  -3.6512   0.0148   0.3317
   9.000   2.4472   0.09606   0.09091  -0.2526  0.2981  0.5000  -3.9209   0.0150   0.3236
  10.000   2.4708   0.10201   0.09708  -0.2430  0.2845  0.5000  -4.1766   0.0152   0.3157
  11.000   2.4906   0.10845   0.10387  -0.2343  0.2711  0.5000  -4.4350   0.0154   0.3084
  12.000   2.4969   0.11641   0.11216  -0.2263  0.2545  0.5000  -4.6706   0.0157   0.3017
  13.000   2.4852   0.12651   0.12254  -0.2198  0.2352  0.5000  -4.8612   0.0160   0.2961
  14.000   2.4581   0.13861   0.13500  -0.2163  0.2129  0.5000  -5.0044   0.0163   0.2920
  15.000   2.4007   0.15488   0.15149  -0.2178  0.1879  0.5000  -5.0606   0.0168   0.2907
  16.000   2.3394   0.17199   0.16884  -0.2237  0.1632  0.5000  -5.0804   0.0174   0.2913
  17.000   2.2852   0.18818   0.18518  -0.2317  0.1400  0.5000  -5.1065   0.0179   0.2929


