xflr5 v6.10.03

 Calculated polar for: S1223 MOD2015 FLAP

 1 1 Reynolds number fixed          Mach number fixed         

 xtrf =   0.500 (top)        0.500 (bottom)
 Mach =   0.080     Re =     0.680 e 6     Ncrit =   9.000

  alpha     CL        CD       CDp       Cm    Top Xtr Bot Xtr   Cpmin    Chinge    XCp    
 ------- -------- --------- --------- -------- ------- ------- -------- --------- ---------
  -5.000   0.9612   0.05230   0.04701  -0.2539  0.4642  0.0253  -1.8283   0.0095   0.5181
  -4.000   1.2308   0.06126   0.05546  -0.2833  0.4247  0.0287  -1.5903   0.0116   0.4814
  -3.000   1.4931   0.07247   0.06662  -0.3098  0.3997  0.2034  -1.8505   0.0135   0.4562
  -2.000   1.6072   0.07500   0.06900  -0.3099  0.3837  0.2640  -1.9930   0.0137   0.4393
  -1.000   1.7092   0.07669   0.07068  -0.3078  0.3753  0.2906  -2.1311   0.0139   0.4243
   0.000   1.8073   0.07833   0.07221  -0.3050  0.3640  0.3119  -2.2755   0.0141   0.4108
   1.000   1.9035   0.07994   0.07391  -0.3021  0.3571  0.3412  -2.4217   0.0142   0.3985
   2.000   1.9948   0.08153   0.07556  -0.2984  0.3494  0.3772  -2.5650   0.0143   0.3871
   3.000   2.0835   0.08277   0.07685  -0.2944  0.3409  0.4185  -2.7163   0.0144   0.3766
   4.000   2.1643   0.08444   0.07871  -0.2894  0.3340  0.4596  -2.8731   0.0145   0.3667
   5.000   2.2394   0.08600   0.08033  -0.2837  0.3247  0.5000  -3.0422   0.0146   0.3573
   6.000   2.3106   0.08811   0.08265  -0.2777  0.3173  0.5000  -3.2291   0.0148   0.3483
   7.000   2.3665   0.09129   0.08597  -0.2699  0.3078  0.5000  -3.4219   0.0149   0.3396
   8.000   2.4211   0.09431   0.08922  -0.2623  0.2975  0.5000  -3.6893   0.0150   0.3312
   9.000   2.4596   0.09890   0.09398  -0.2533  0.2837  0.5000  -3.9638   0.0152   0.3231
  10.000   2.4949   0.10368   0.09900  -0.2448  0.2707  0.5000  -4.2453   0.0153   0.3153
  11.000   2.5216   0.10928   0.10484  -0.2365  0.2551  0.5000  -4.5253   0.0155   0.3080
  12.000   2.5259   0.11739   0.11316  -0.2282  0.2352  0.5000  -4.7618   0.0157   0.3013
  13.000   2.5063   0.12838   0.12434  -0.2215  0.2071  0.5000  -4.9387   0.0161   0.2959
  14.000   2.4509   0.14409   0.14023  -0.2191  0.1765  0.5000  -5.0113   0.0166   0.2930
  15.000   2.3851   0.16166   0.15803  -0.2224  0.1509  0.5000  -5.0368   0.0171   0.2928
  16.000   2.3187   0.17972   0.17630  -0.2298  0.1292  0.5000  -5.0338   0.0177   0.2944
  17.000   2.2710   0.19513   0.19186  -0.2378  0.1101  0.5000  -5.0760   0.0182   0.2959


