xflr5 v6.10.03

 Calculated polar for: S1223 MOD2015 FLAP

 1 1 Reynolds number fixed          Mach number fixed         

 xtrf =   0.500 (top)        0.500 (bottom)
 Mach =   0.080     Re =     0.980 e 6     Ncrit =   9.000

  alpha     CL        CD       CDp       Cm    Top Xtr Bot Xtr   Cpmin    Chinge    XCp    
 ------- -------- --------- --------- -------- ------- ------- -------- --------- ---------
  -5.000   1.0366   0.05505   0.04992  -0.2678  0.4360  0.0221  -1.7189   0.0103   0.5123
  -4.000   1.2742   0.06295   0.05739  -0.2911  0.4031  0.0241  -1.6281   0.0120   0.4796
  -3.000   1.5074   0.07254   0.06694  -0.3123  0.3813  0.1625  -1.8672   0.0136   0.4559
  -2.000   1.6253   0.07529   0.06968  -0.3130  0.3695  0.2470  -2.0146   0.0139   0.4390
  -1.000   1.7270   0.07705   0.07140  -0.3109  0.3597  0.2760  -2.1524   0.0141   0.4242
   0.000   1.8244   0.07861   0.07295  -0.3080  0.3519  0.2968  -2.2977   0.0142   0.4108
   1.000   1.9182   0.08025   0.07456  -0.3047  0.3419  0.3260  -2.4424   0.0144   0.3986
   2.000   2.0096   0.08167   0.07608  -0.3011  0.3372  0.3590  -2.5869   0.0145   0.3874
   3.000   2.0965   0.08327   0.07775  -0.2969  0.3294  0.4001  -2.7365   0.0146   0.3769
   4.000   2.1786   0.08480   0.07935  -0.2920  0.3212  0.4407  -2.8943   0.0147   0.3670
   5.000   2.2565   0.08638   0.08112  -0.2867  0.3146  0.4826  -3.0675   0.0147   0.3576
   6.000   2.3214   0.08883   0.08361  -0.2797  0.3038  0.5000  -3.2481   0.0149   0.3486
   7.000   2.3873   0.09099   0.08600  -0.2731  0.2968  0.5000  -3.4561   0.0149   0.3399
   8.000   2.4437   0.09377   0.08886  -0.2656  0.2835  0.5000  -3.7343   0.0150   0.3316
   9.000   2.4900   0.09743   0.09266  -0.2572  0.2704  0.5000  -4.0271   0.0151   0.3235
  10.000   2.5284   0.10170   0.09709  -0.2486  0.2545  0.5000  -4.3176   0.0153   0.3157
  11.000   2.5482   0.10782   0.10327  -0.2393  0.2255  0.5000  -4.5912   0.0155   0.3082
  12.000   2.5323   0.11802   0.11348  -0.2294  0.1900  0.5000  -4.7860   0.0158   0.3016
  13.000   2.4969   0.13087   0.12646  -0.2225  0.1613  0.5000  -4.9246   0.0162   0.2965
  14.000   2.4493   0.14564   0.14147  -0.2205  0.1394  0.5000  -5.0145   0.0166   0.2936
  15.000   2.3845   0.16312   0.15921  -0.2240  0.1201  0.5000  -5.0416   0.0172   0.2934
  16.000   2.3245   0.18030   0.17663  -0.2308  0.1034  0.5000  -5.0612   0.0177   0.2946
  17.000   2.2767   0.19573   0.19221  -0.2387  0.0865  0.5000  -5.1046   0.0182   0.2960


