xflr5 v6.10.03

 Calculated polar for: S1223 MOD2015 FLAP

 1 1 Reynolds number fixed          Mach number fixed         

 xtrf =   0.500 (top)        0.500 (bottom)
 Mach =   0.080     Re =     0.540 e 6     Ncrit =   9.000

  alpha     CL        CD       CDp       Cm    Top Xtr Bot Xtr   Cpmin    Chinge    XCp    
 ------- -------- --------- --------- -------- ------- ------- -------- --------- ---------
  -5.000   0.2630   0.07867   0.07531  -0.0687  0.5000  0.0288  -1.1895  -0.0001   0.5128
  -4.000   1.1809   0.05878   0.05289  -0.2742  0.4425  0.0319  -1.5490   0.0111   0.4834
  -3.000   1.4859   0.07218   0.06612  -0.3086  0.4118  0.2263  -1.8411   0.0134   0.4564
  -2.000   1.5972   0.07435   0.06818  -0.3081  0.3971  0.2741  -1.9802   0.0136   0.4394
  -1.000   1.6994   0.07582   0.06949  -0.3060  0.3844  0.3012  -2.1180   0.0137   0.4243
   0.000   1.8001   0.07757   0.07127  -0.3036  0.3756  0.3231  -2.2641   0.0139   0.4107
   1.000   1.8970   0.07907   0.07273  -0.3008  0.3662  0.3529  -2.4104   0.0141   0.3984
   2.000   1.9918   0.08034   0.07410  -0.2976  0.3584  0.3899  -2.5551   0.0142   0.3870
   3.000   2.0781   0.08191   0.07579  -0.2933  0.3506  0.4310  -2.7060   0.0143   0.3765
   4.000   2.1640   0.08271   0.07663  -0.2889  0.3414  0.4739  -2.8677   0.0144   0.3666
   5.000   2.2369   0.08488   0.07905  -0.2829  0.3339  0.5000  -3.0343   0.0145   0.3572
   6.000   2.3107   0.08658   0.08079  -0.2773  0.3241  0.5000  -3.2248   0.0146   0.3482
   7.000   2.3690   0.08951   0.08402  -0.2698  0.3156  0.5000  -3.4205   0.0148   0.3396
   8.000   2.4183   0.09288   0.08748  -0.2616  0.3041  0.5000  -3.6799   0.0149   0.3312
   9.000   2.4512   0.09824   0.09322  -0.2520  0.2924  0.5000  -3.9423   0.0151   0.3230
  10.000   2.4808   0.10367   0.09893  -0.2430  0.2793  0.5000  -4.2115   0.0153   0.3152
  11.000   2.5025   0.10991   0.10544  -0.2345  0.2652  0.5000  -4.4772   0.0155   0.3079
  12.000   2.5092   0.11790   0.11373  -0.2266  0.2475  0.5000  -4.7166   0.0158   0.3013
  13.000   2.4986   0.12790   0.12403  -0.2204  0.2270  0.5000  -4.9121   0.0161   0.2957
  14.000   2.4572   0.14184   0.13820  -0.2175  0.2030  0.5000  -5.0206   0.0165   0.2922
  15.000   2.3965   0.15864   0.15524  -0.2200  0.1763  0.5000  -5.0641   0.0170   0.2915
  16.000   2.3327   0.17618   0.17301  -0.2266  0.1518  0.5000  -5.0724   0.0176   0.2926
  17.000   2.2772   0.19266   0.18959  -0.2353  0.1289  0.5000  -5.0912   0.0181   0.2946


