xflr5 v6.10.03

 Calculated polar for: S1223 MOD2015 FLAP

 1 1 Reynolds number fixed          Mach number fixed         

 xtrf =   0.500 (top)        0.500 (bottom)
 Mach =   0.080     Re =     0.720 e 6     Ncrit =   9.000

  alpha     CL        CD       CDp       Cm    Top Xtr Bot Xtr   Cpmin    Chinge    XCp    
 ------- -------- --------- --------- -------- ------- ------- -------- --------- ---------
  -4.000   1.2288   0.06106   0.05533  -0.2829  0.4222  0.0278  -1.5894   0.0116   0.4814
  -3.000   1.4968   0.07262   0.06683  -0.3105  0.3968  0.2009  -1.8545   0.0135   0.4561
  -2.000   1.6103   0.07511   0.06921  -0.3104  0.3819  0.2616  -1.9967   0.0138   0.4392
  -1.000   1.7119   0.07681   0.07087  -0.3083  0.3728  0.2887  -2.1346   0.0139   0.4243
   0.000   1.8100   0.07842   0.07238  -0.3055  0.3618  0.3097  -2.2788   0.0141   0.4108
   1.000   1.9052   0.08004   0.07408  -0.3024  0.3550  0.3379  -2.4247   0.0142   0.3985
   2.000   1.9965   0.08166   0.07573  -0.2988  0.3469  0.3743  -2.5680   0.0144   0.3872
   3.000   2.0847   0.08302   0.07719  -0.2947  0.3394  0.4153  -2.7187   0.0145   0.3766
   4.000   2.1658   0.08464   0.07897  -0.2897  0.3321  0.4563  -2.8760   0.0146   0.3667
   5.000   2.2426   0.08599   0.08036  -0.2842  0.3223  0.4979  -3.0466   0.0146   0.3573
   6.000   2.3119   0.08834   0.08294  -0.2780  0.3154  0.5000  -3.2317   0.0148   0.3483
   7.000   2.3684   0.09135   0.08604  -0.2702  0.3052  0.5000  -3.4254   0.0149   0.3396
   8.000   2.4240   0.09436   0.08932  -0.2627  0.2955  0.5000  -3.6955   0.0150   0.3313
   9.000   2.4646   0.09872   0.09385  -0.2539  0.2820  0.5000  -3.9742   0.0152   0.3232
  10.000   2.4976   0.10368   0.09898  -0.2451  0.2682  0.5000  -4.2517   0.0153   0.3154
  11.000   2.5242   0.10929   0.10483  -0.2368  0.2522  0.5000  -4.5324   0.0155   0.3080
  12.000   2.5335   0.11679   0.11256  -0.2287  0.2306  0.5000  -4.7806   0.0157   0.3013
  13.000   2.5057   0.12872   0.12463  -0.2217  0.1997  0.5000  -4.9390   0.0161   0.2960
  14.000   2.4485   0.14466   0.14074  -0.2195  0.1691  0.5000  -5.0064   0.0166   0.2932
  15.000   2.3772   0.16302   0.15933  -0.2233  0.1447  0.5000  -5.0148   0.0172   0.2934
  16.000   2.3203   0.17974   0.17628  -0.2299  0.1245  0.5000  -5.0408   0.0177   0.2944
  17.000   2.2699   0.19559   0.19228  -0.2383  0.1067  0.5000  -5.0736   0.0182   0.2961


