xflr5 v6.10.03

 Calculated polar for: S1223 MOD2015 FLAP

 1 1 Reynolds number fixed          Mach number fixed         

 xtrf =   0.500 (top)        0.500 (bottom)
 Mach =   0.080     Re =     0.620 e 6     Ncrit =   9.000

  alpha     CL        CD       CDp       Cm    Top Xtr Bot Xtr   Cpmin    Chinge    XCp    
 ------- -------- --------- --------- -------- ------- ------- -------- --------- ---------
  -5.000   0.9501   0.05191   0.04655  -0.2519  0.4706  0.0265  -1.8328   0.0094   0.5192
  -4.000   1.2184   0.06069   0.05484  -0.2811  0.4311  0.0302  -1.5796   0.0115   0.4819
  -3.000   1.4910   0.07246   0.06651  -0.3095  0.4034  0.2125  -1.8473   0.0135   0.4563
  -2.000   1.6030   0.07482   0.06876  -0.3092  0.3898  0.2675  -1.9881   0.0137   0.4393
  -1.000   1.7054   0.07647   0.07033  -0.3071  0.3791  0.2943  -2.1259   0.0138   0.4243
   0.000   1.8038   0.07817   0.07199  -0.3044  0.3693  0.3153  -2.2708   0.0140   0.4108
   1.000   1.9011   0.07960   0.07343  -0.3016  0.3603  0.3458  -2.4172   0.0142   0.3984
   2.000   1.9929   0.08120   0.07513  -0.2980  0.3531  0.3818  -2.5604   0.0143   0.3871
   3.000   2.0814   0.08244   0.07638  -0.2940  0.3439  0.4236  -2.7125   0.0144   0.3765
   4.000   2.1627   0.08399   0.07814  -0.2890  0.3372  0.4655  -2.8694   0.0145   0.3666
   5.000   2.2366   0.08581   0.08011  -0.2832  0.3289  0.5000  -3.0373   0.0146   0.3572
   6.000   2.3101   0.08756   0.08197  -0.2775  0.3201  0.5000  -3.2267   0.0147   0.3483
   7.000   2.3659   0.09080   0.08544  -0.2697  0.3111  0.5000  -3.4193   0.0149   0.3396
   8.000   2.4178   0.09400   0.08881  -0.2617  0.3005  0.5000  -3.6819   0.0150   0.3312
   9.000   2.4536   0.09894   0.09392  -0.2525  0.2865  0.5000  -3.9507   0.0152   0.3230
  10.000   2.4899   0.10367   0.09898  -0.2441  0.2743  0.5000  -4.2333   0.0153   0.3153
  11.000   2.5152   0.10945   0.10503  -0.2358  0.2593  0.5000  -4.5089   0.0155   0.3080
  12.000   2.5225   0.11727   0.11310  -0.2277  0.2408  0.5000  -4.7512   0.0157   0.3013
  13.000   2.5054   0.12799   0.12404  -0.2211  0.2177  0.5000  -4.9333   0.0161   0.2958
  14.000   2.4551   0.14305   0.13929  -0.2185  0.1886  0.5000  -5.0196   0.0165   0.2927
  15.000   2.3894   0.16056   0.15702  -0.2216  0.1617  0.5000  -5.0471   0.0171   0.2923
  16.000   2.3256   0.17815   0.17483  -0.2284  0.1381  0.5000  -5.0539   0.0176   0.2936
  17.000   2.2692   0.19487   0.19167  -0.2374  0.1169  0.5000  -5.0671   0.0182   0.2958


