xflr5 v6.10.03

 Calculated polar for: S1223 MOD2015 FLAP

 1 1 Reynolds number fixed          Mach number fixed         

 xtrf =   0.500 (top)        0.500 (bottom)
 Mach =   0.000     Re =     0.320 e 6     Ncrit =   9.000

  alpha     CL        CD       CDp       Cm    Top Xtr Bot Xtr   Cpmin    Chinge    XCp    
 ------- -------- --------- --------- -------- ------- ------- -------- --------- ---------
  -5.000   0.2620   0.08099   0.07704  -0.0670  0.5000  0.0428  -1.0178  -0.0002   0.5069
  -4.000   0.3127   0.07151   0.06762  -0.0736  0.5000  0.0481  -1.0044   0.0003   0.4844
  -3.000   0.5722   0.05048   0.04624  -0.1304  0.4940  0.0546  -1.2063   0.0031   0.4764
  -2.000   1.5544   0.06865   0.06194  -0.3005  0.4302  0.3032  -1.9256   0.0126   0.4400
  -1.000   1.6708   0.07054   0.06370  -0.3008  0.4160  0.3290  -2.0730   0.0129   0.4245
   0.000   1.7922   0.07181   0.06472  -0.3018  0.4037  0.3551  -2.2355   0.0131   0.4107
   1.000   1.8933   0.07374   0.06677  -0.2997  0.3936  0.3856  -2.3817   0.0134   0.3984
   2.000   2.0004   0.07398   0.06692  -0.2985  0.3830  0.4267  -2.5385   0.0134   0.3872
   3.000   2.0834   0.07566   0.06889  -0.2937  0.3752  0.4677  -2.6848   0.0136   0.3767
   4.000   2.1648   0.07638   0.06970  -0.2888  0.3658  0.5000  -2.8425   0.0136   0.3669
   5.000   2.2541   0.07863   0.07218  -0.2855  0.3565  0.5000  -3.0268   0.0139   0.3578
   6.000   2.3248   0.08059   0.07426  -0.2796  0.3466  0.5000  -3.2150   0.0141   0.3489
   7.000   2.3847   0.08308   0.07706  -0.2724  0.3366  0.5000  -3.4149   0.0142   0.3404
   8.000   2.4320   0.08634   0.08051  -0.2639  0.3258  0.5000  -3.6762   0.0144   0.3320
   9.000   2.4593   0.09146   0.08606  -0.2535  0.3137  0.5000  -3.9252   0.0147   0.3238
  10.000   2.4786   0.09729   0.09216  -0.2431  0.3003  0.5000  -4.1733   0.0150   0.3158
  11.000   2.4869   0.10453   0.09969  -0.2330  0.2862  0.5000  -4.4076   0.0152   0.3083
  12.000   2.4766   0.11451   0.11021  -0.2238  0.2717  0.5000  -4.6047   0.0156   0.3016
  13.000   2.4584   0.12573   0.12182  -0.2173  0.2542  0.5000  -4.7779   0.0159   0.2961
  14.000   2.4247   0.13908   0.13554  -0.2142  0.2338  0.5000  -4.9015   0.0163   0.2923
  15.000   2.3735   0.15504   0.15189  -0.2160  0.2101  0.5000  -4.9666   0.0168   0.2909
  16.000   2.3205   0.17118   0.16823  -0.2216  0.1851  0.5000  -5.0069   0.0173   0.2912
  17.000   2.2733   0.18641   0.18353  -0.2291  0.1604  0.5000  -5.0506   0.0178   0.2923


