xflr5 v6.10.03

 Calculated polar for: S1223 MOD2015 FLAP

 1 1 Reynolds number fixed          Mach number fixed         

 xtrf =   0.500 (top)        0.500 (bottom)
 Mach =   0.000     Re =     0.460 e 6     Ncrit =   9.000

  alpha     CL        CD       CDp       Cm    Top Xtr Bot Xtr   Cpmin    Chinge    XCp    
 ------- -------- --------- --------- -------- ------- ------- -------- --------- ---------
  -5.000   0.9391   0.05135   0.04578  -0.2501  0.4972  0.0307  -1.8142   0.0092   0.5203
  -4.000   1.1676   0.05806   0.05205  -0.2718  0.4552  0.0351  -1.5321   0.0109   0.4840
  -3.000   1.4782   0.07149   0.06528  -0.3074  0.4222  0.2430  -1.8263   0.0132   0.4567
  -2.000   1.5833   0.07301   0.06659  -0.3059  0.4056  0.2834  -1.9590   0.0133   0.4397
  -1.000   1.6867   0.07469   0.06824  -0.3041  0.3948  0.3096  -2.0966   0.0135   0.4246
   0.000   1.7947   0.07579   0.06917  -0.3029  0.3829  0.3327  -2.2482   0.0137   0.4109
   1.000   1.8913   0.07763   0.07112  -0.3001  0.3748  0.3627  -2.3923   0.0139   0.3986
   2.000   1.9863   0.07873   0.07220  -0.2971  0.3655  0.4013  -2.5370   0.0140   0.3873
   3.000   2.0764   0.07974   0.07338  -0.2934  0.3580  0.4430  -2.6906   0.0141   0.3768
   4.000   2.1523   0.08147   0.07528  -0.2878  0.3494  0.4849  -2.8413   0.0142   0.3669
   5.000   2.2380   0.08247   0.07636  -0.2838  0.3404  0.5000  -3.0212   0.0143   0.3576
   6.000   2.3022   0.08520   0.07933  -0.2770  0.3318  0.5000  -3.1990   0.0145   0.3487
   7.000   2.3697   0.08683   0.08104  -0.2709  0.3215  0.5000  -3.4071   0.0146   0.3402
   8.000   2.4108   0.09116   0.08573  -0.2616  0.3117  0.5000  -3.6532   0.0148   0.3317
   9.000   2.4485   0.09554   0.09034  -0.2527  0.2998  0.5000  -3.9218   0.0150   0.3236
  10.000   2.4708   0.10159   0.09659  -0.2429  0.2858  0.5000  -4.1752   0.0152   0.3157
  11.000   2.4889   0.10826   0.10369  -0.2340  0.2728  0.5000  -4.4296   0.0154   0.3084
  12.000   2.4950   0.11626   0.11202  -0.2260  0.2564  0.5000  -4.6644   0.0157   0.3017
  13.000   2.4828   0.12646   0.12251  -0.2196  0.2372  0.5000  -4.8538   0.0160   0.2961
  14.000   2.4539   0.13882   0.13521  -0.2162  0.2154  0.5000  -4.9921   0.0163   0.2920
  15.000   2.3986   0.15483   0.15147  -0.2176  0.1904  0.5000  -5.0534   0.0168   0.2907
  16.000   2.3395   0.17165   0.16853  -0.2233  0.1661  0.5000  -5.0792   0.0174   0.2912
  17.000   2.2847   0.18791   0.18491  -0.2313  0.1429  0.5000  -5.1033   0.0179   0.2927


