xflr5 v6.10.03

 Calculated polar for: S1223 MOD2015 FLAP

 1 1 Reynolds number fixed          Mach number fixed         

 xtrf =   0.500 (top)        0.500 (bottom)
 Mach =   0.080     Re =     0.200 e 6     Ncrit =   9.000

  alpha     CL        CD       CDp       Cm    Top Xtr Bot Xtr   Cpmin    Chinge    XCp    
 ------- -------- --------- --------- -------- ------- ------- -------- --------- ---------
  -4.000   1.1016   0.05384   0.04696  -0.2607  0.5000  0.0611  -1.4791   0.0098   0.4879
  -3.000   1.4025   0.06129   0.05447  -0.2934  0.4884  0.2742  -1.7496   0.0114   0.4582
  -2.000   1.4160   0.05683   0.05002  -0.2749  0.4723  0.3028  -1.8011   0.0105   0.4411
   0.000   1.7567   0.06481   0.05740  -0.2944  0.4369  0.3821  -2.1881   0.0119   0.4103
   1.000   1.8765   0.06523   0.05771  -0.2950  0.4246  0.4108  -2.3483   0.0120   0.3979
   2.000   1.9789   0.06766   0.06031  -0.2933  0.4130  0.4492  -2.4980   0.0123   0.3867
   3.000   2.0855   0.06796   0.06061  -0.2920  0.4031  0.4903  -2.6673   0.0123   0.3765
   4.000   2.1855   0.07248   0.06545  -0.2905  0.3914  0.5000  -2.8453   0.0129   0.3670
   5.000   2.2955   0.07503   0.06808  -0.2904  0.3806  0.5000  -3.0554   0.0131   0.3582
   6.000   2.3457   0.07907   0.07255  -0.2815  0.3691  0.5000  -3.2200   0.0135   0.3492
   7.000   2.4026   0.08246   0.07624  -0.2740  0.3580  0.5000  -3.4196   0.0138   0.3407
   8.000   2.4405   0.08634   0.08045  -0.2642  0.3458  0.5000  -3.6662   0.0141   0.3322
  10.000   2.4637   0.09808   0.09306  -0.2413  0.3195  0.5000  -4.1136   0.0148   0.3160
  11.000   2.4781   0.10340   0.09862  -0.2316  0.3044  0.5000  -4.3576   0.0151   0.3084
  12.000   2.4227   0.11736   0.11325  -0.2203  0.2885  0.5000  -4.4519   0.0156   0.3022
  13.000   2.3787   0.13192   0.12833  -0.2150  0.2712  0.5000  -4.5555   0.0161   0.2979
  14.000   2.3526   0.14477   0.14151  -0.2138  0.2525  0.5000  -4.6882   0.0165   0.2946
  15.000   2.2392   0.17138   0.16874  -0.2241  0.2263  0.5000  -4.5432   0.0173   0.2992
  16.000   2.2626   0.17638   0.17369  -0.2236  0.2047  0.5000  -4.8033   0.0175   0.2943
  17.000   2.2070   0.19385   0.19146  -0.2341  0.1785  0.5000  -4.7905   0.0181   0.2973


