XFLR5 v6.09.06

 Calculated polar for: S1223 MOD2015

 1 1 Reynolds number fixed          Mach number fixed         

 xtrf =   1.000 (top)        1.000 (bottom)
 Mach =   0.000     Re =     0.240 e 6     Ncrit =   9.000

  alpha     CL        CD       CDp       Cm    Top Xtr Bot Xtr   Cpmin    Chinge    XCp    
 ------- -------- --------- --------- -------- ------- ------- -------- --------- ---------
 -10.000  -0.0597   0.14036   0.13719  -0.0521  0.9757  0.0273  -1.2500   0.0000  -0.7345
  -9.500  -0.0238   0.13282   0.12966  -0.0584  0.9684  0.0278  -1.2274   0.0000  -2.4792
  -8.500   0.0482   0.11908   0.11595  -0.0709  0.9518  0.0308  -1.1768   0.0000   1.8463
  -8.000   0.0779   0.11173   0.10863  -0.0778  0.9416  0.0319  -1.2713   0.0000   1.3222
  -7.500   0.1145   0.10541   0.10233  -0.0820  0.9297  0.0337  -1.1840   0.0000   1.0135
  -6.500   0.3131   0.06233   0.05921  -0.1087  0.8033  0.0446  -0.8958   0.0000   0.6075
  -6.000   0.3913   0.05183   0.04795  -0.1282  0.6970  0.0486  -0.9125   0.0000   0.5864
  -5.500   0.3968   0.04926   0.04490  -0.1252  0.6203  0.0511  -0.9285   0.0000   0.5728
  -4.000   0.3559   0.06174   0.05703  -0.1260  0.5820  0.0548  -1.2235   0.0000   0.6117
  -3.500   0.3749   0.05903   0.05414  -0.1237  0.5543  0.0574  -1.1106   0.0000   0.5857
  -3.000   0.4050   0.05252   0.04754  -0.1329  0.5355  0.0630  -1.1839   0.0000   0.5824
  -2.500   0.5399   0.03508   0.02972  -0.1759  0.5170  0.0578  -1.5687   0.0000   0.5783
  -2.000   0.9105   0.01813   0.00958  -0.2588  0.4880  0.0423  -1.4965   0.0000   0.5352
  -1.500   0.9880   0.01805   0.00939  -0.2632  0.4747  0.0452  -1.4306   0.0000   0.5163
  -1.000   1.0689   0.01825   0.00931  -0.2684  0.4624  0.0546  -1.5076   0.0000   0.4999
  -0.500   1.1537   0.01810   0.00953  -0.2746  0.4524  0.2283  -1.5869   0.0000   0.4859
   0.000   1.2117   0.01889   0.01014  -0.2746  0.4444  0.2753  -1.6497   0.0000   0.4735
   0.500   1.2741   0.01957   0.01075  -0.2756  0.4370  0.3038  -1.7181   0.0000   0.4623
   1.000   1.3294   0.02008   0.01129  -0.2751  0.4298  0.3304  -1.7829   0.0000   0.4520
   1.500   1.3930   0.02059   0.01166  -0.2765  0.4237  0.3479  -1.8563   0.0000   0.4426
   2.000   1.4598   0.02130   0.01224  -0.2786  0.4181  0.3650  -1.9336   0.0000   0.4340
   2.500   1.5158   0.02175   0.01277  -0.2784  0.4126  0.3856  -2.0031   0.0000   0.4260
   3.000   1.5739   0.02224   0.01331  -0.2787  0.4070  0.4099  -2.0755   0.0000   0.4184
   3.500   1.6360   0.02295   0.01399  -0.2799  0.4022  0.4437  -2.1517   0.0000   0.4115
   4.000   1.6974   0.02381   0.01495  -0.2810  0.3973  0.4888  -2.2291   0.0000   0.4051
   4.500   1.7506   0.02442   0.01583  -0.2804  0.3925  0.5432  -2.3041   0.0000   0.3988
   5.000   1.8067   0.02512   0.01672  -0.2804  0.3878  0.6237  -2.3849   0.0000   0.3928
   5.500   1.8607   0.02573   0.01756  -0.2800  0.3834  0.7690  -2.4672   0.0000   0.3871
   6.500   1.9506   0.02743   0.01946  -0.2757  0.3744  1.0000  -2.6222   0.0000   0.3760
   7.000   1.9962   0.02833   0.02045  -0.2738  0.3695  1.0000  -2.7078   0.0000   0.3708
   7.500   2.0454   0.02918   0.02127  -0.2726  0.3648  1.0000  -2.8009   0.0000   0.3659
   8.000   2.1034   0.03058   0.02258  -0.2735  0.3597  1.0000  -2.9116   0.0000   0.3616
   8.500   2.1338   0.03158   0.02387  -0.2687  0.3552  1.0000  -2.9945   0.0000   0.3564
   9.000   2.1682   0.03262   0.02508  -0.2648  0.3499  1.0000  -3.0838   0.0000   0.3515
   9.500   2.2100   0.03348   0.02596  -0.2623  0.3450  1.0000  -3.2004   0.0000   0.3470
  10.000   2.2549   0.03486   0.02737  -0.2608  0.3396  1.0000  -3.3243   0.0000   0.3428
  10.500   2.2636   0.03631   0.02917  -0.2523  0.3344  1.0000  -3.4265   0.0000   0.3375
  11.000   2.2883   0.03752   0.03053  -0.2470  0.3289  1.0000  -3.5603   0.0000   0.3329
  11.500   2.3384   0.03839   0.03128  -0.2464  0.3226  1.0000  -3.7406   0.0000   0.3291
  12.000   2.3296   0.04075   0.03409  -0.2357  0.3173  1.0000  -3.8224   0.0000   0.3238
  12.500   2.3402   0.04259   0.03615  -0.2288  0.3109  1.0000  -3.9427   0.0000   0.3191
  13.000   2.3746   0.04364   0.03713  -0.2259  0.3041  1.0000  -4.1107   0.0000   0.3152
  13.500   2.3529   0.04749   0.04146  -0.2155  0.2976  1.0000  -4.1691   0.0000   0.3104
  14.000   2.3602   0.04997   0.04408  -0.2097  0.2906  1.0000  -4.2903   0.0000   0.3064
  14.500   2.3561   0.05391   0.04828  -0.2036  0.2835  1.0000  -4.3882   0.0000   0.3026
  15.000   2.3458   0.05875   0.05340  -0.1980  0.2758  1.0000  -4.4710   0.0000   0.2992
  15.500   2.3434   0.06356   0.05838  -0.1940  0.2683  1.0000  -4.5696   0.0000   0.2961
  16.000   2.3202   0.07117   0.06632  -0.1903  0.2595  1.0000  -4.6177   0.0000   0.2939
  16.500   2.2999   0.07931   0.07470  -0.1883  0.2503  1.0000  -4.6687   0.0000   0.2922
  17.000   2.2847   0.08728   0.08275  -0.1874  0.2402  1.0000  -4.7293   0.0000   0.2907


