xflr5 v6.10.03

 Calculated polar for: S1223 MOD2015 FLAP

 1 1 Reynolds number fixed          Mach number fixed         

 xtrf =   0.500 (top)        0.500 (bottom)
 Mach =   0.000     Re =     0.700 e 6     Ncrit =   9.000

  alpha     CL        CD       CDp       Cm    Top Xtr Bot Xtr   Cpmin    Chinge    XCp    
 ------- -------- --------- --------- -------- ------- ------- -------- --------- ---------
  -5.000   0.9702   0.05262   0.04734  -0.2553  0.4633  0.0250  -1.7997   0.0096   0.5172
  -4.000   1.2340   0.06141   0.05563  -0.2839  0.4243  0.0284  -1.5883   0.0116   0.4812
  -3.000   1.4913   0.07236   0.06654  -0.3097  0.3993  0.2032  -1.8437   0.0135   0.4564
  -2.000   1.6043   0.07484   0.06887  -0.3097  0.3832  0.2633  -1.9847   0.0137   0.4395
  -1.000   1.7056   0.07652   0.07054  -0.3075  0.3748  0.2899  -2.1216   0.0139   0.4246
   0.000   1.8031   0.07810   0.07200  -0.3048  0.3632  0.3113  -2.2646   0.0140   0.4111
   1.000   1.8983   0.07971   0.07371  -0.3018  0.3567  0.3404  -2.4093   0.0142   0.3988
   2.000   1.9891   0.08129   0.07533  -0.2983  0.3490  0.3766  -2.5515   0.0143   0.3875
   3.000   2.0770   0.08255   0.07666  -0.2943  0.3407  0.4178  -2.7008   0.0144   0.3770
   4.000   2.1577   0.08415   0.07843  -0.2894  0.3338  0.4589  -2.8566   0.0145   0.3671
   5.000   2.2329   0.08561   0.07994  -0.2838  0.3242  0.5000  -3.0245   0.0146   0.3577
   6.000   2.3038   0.08768   0.08223  -0.2779  0.3171  0.5000  -3.2101   0.0147   0.3488
   7.000   2.3601   0.09072   0.08539  -0.2703  0.3077  0.5000  -3.4025   0.0148   0.3401
   8.000   2.4152   0.09360   0.08851  -0.2629  0.2974  0.5000  -3.6703   0.0150   0.3318
   9.000   2.4553   0.09793   0.09298  -0.2541  0.2838  0.5000  -3.9459   0.0151   0.3237
  10.000   2.4915   0.10250   0.09779  -0.2457  0.2710  0.5000  -4.2269   0.0152   0.3159
  11.000   2.5200   0.10777   0.10330  -0.2375  0.2554  0.5000  -4.5092   0.0154   0.3086
  12.000   2.5265   0.11548   0.11119  -0.2290  0.2345  0.5000  -4.7492   0.0156   0.3018
  13.000   2.5035   0.12675   0.12260  -0.2218  0.2042  0.5000  -4.9175   0.0160   0.2962
  14.000   2.4501   0.14210   0.13812  -0.2188  0.1733  0.5000  -4.9957   0.0165   0.2931
  15.000   2.3866   0.15929   0.15555  -0.2215  0.1483  0.5000  -5.0302   0.0170   0.2925
  16.000   2.3248   0.17661   0.17310  -0.2279  0.1280  0.5000  -5.0457   0.0175   0.2936
  17.000   2.2774   0.19187   0.18853  -0.2355  0.1099  0.5000  -5.0912   0.0180   0.2948


