xflr5 v6.10.03

 Calculated polar for: S1223 MOD2015

 1 1 Reynolds number fixed          Mach number fixed         

 xtrf =   0.500 (top)        0.500 (bottom)
 Mach =   0.000     Re =     0.680 e 6     Ncrit =   9.000

  alpha     CL        CD       CDp       Cm    Top Xtr Bot Xtr   Cpmin    Chinge    XCp    
 ------- -------- --------- --------- -------- ------- ------- -------- --------- ---------
  -5.000   0.4916   0.01718   0.01137  -0.2396  0.5000  0.0178  -3.7928   0.0000   0.7487
  -4.000   0.6723   0.01459   0.00797  -0.2561  0.4728  0.0195  -2.9738   0.0000   0.6373
  -3.000   0.8208   0.01387   0.00677  -0.2639  0.4401  0.0206  -2.2009   0.0000   0.5749
  -2.000   0.9582   0.01367   0.00631  -0.2690  0.4169  0.0218  -1.6117   0.0000   0.5315
  -1.000   1.0852   0.01389   0.00627  -0.2716  0.3987  0.0243  -1.5395   0.0000   0.4989
   0.000   1.2087   0.01416   0.00645  -0.2733  0.3859  0.0411  -1.6740   0.0000   0.4728
   1.000   1.3341   0.01455   0.00726  -0.2759  0.3752  0.2482  -1.8131   0.0000   0.4516
   2.000   1.4420   0.01529   0.00798  -0.2744  0.3661  0.2886  -1.9492   0.0000   0.4333
   3.000   1.5497   0.01620   0.00890  -0.2731  0.3577  0.3267  -2.0908   0.0000   0.4173
   4.000   1.6562   0.01698   0.00981  -0.2716  0.3506  0.3785  -2.2340   0.0000   0.4032
   5.000   1.7603   0.01820   0.01111  -0.2699  0.3422  0.4601  -2.3787   0.0000   0.3907
   6.000   1.8586   0.01922   0.01230  -0.2670  0.3360  0.5000  -2.5342   0.0000   0.3791
   7.000   1.9505   0.02045   0.01358  -0.2631  0.3287  0.5000  -2.6973   0.0000   0.3682
   8.000   2.0394   0.02204   0.01524  -0.2588  0.3205  0.5000  -2.8735   0.0000   0.3582
   9.000   2.1216   0.02347   0.01687  -0.2535  0.3128  0.5000  -3.0684   0.0000   0.3486
  10.000   2.1979   0.02554   0.01903  -0.2476  0.3033  0.5000  -3.2825   0.0000   0.3396
  11.000   2.2690   0.02745   0.02121  -0.2411  0.2938  0.5000  -3.5630   0.0000   0.3309
  12.000   2.3325   0.03004   0.02400  -0.2340  0.2804  0.5000  -3.8665   0.0000   0.3225
  13.000   2.3878   0.03342   0.02759  -0.2264  0.2673  0.5000  -4.1724   0.0000   0.3146
  14.000   2.4335   0.03782   0.03221  -0.2185  0.2509  0.5000  -4.4797   0.0000   0.3070
  15.000   2.4617   0.04417   0.03878  -0.2101  0.2310  0.5000  -4.7581   0.0000   0.2998
  16.000   2.4550   0.05496   0.04975  -0.2012  0.2040  0.5000  -4.9604   0.0000   0.2936
  17.000   2.3972   0.07435   0.06940  -0.1952  0.1755  0.5000  -5.0377   0.0000   0.2901


