xflr5 v6.10.03

 Calculated polar for: S1223 MOD2015

 1 1 Reynolds number fixed          Mach number fixed         

 xtrf =   0.500 (top)        0.500 (bottom)
 Mach =   0.080     Re =     0.560 e 6     Ncrit =   9.000

  alpha     CL        CD       CDp       Cm    Top Xtr Bot Xtr   Cpmin    Chinge    XCp    
 ------- -------- --------- --------- -------- ------- ------- -------- --------- ---------
  -5.000   0.3217   0.06597   0.06162  -0.1235  0.5000  0.0243  -1.4885   0.0000   0.6458
  -4.000   0.6513   0.01570   0.00902  -0.2517  0.4861  0.0212  -2.9988   0.0000   0.6430
  -3.000   0.8047   0.01467   0.00747  -0.2606  0.4522  0.0228  -2.2318   0.0000   0.5772
  -2.000   0.9468   0.01441   0.00685  -0.2666  0.4270  0.0242  -1.6202   0.0000   0.5324
  -1.000   1.0780   0.01455   0.00675  -0.2700  0.4087  0.0271  -1.5371   0.0000   0.4992
   0.000   1.2106   0.01480   0.00702  -0.2738  0.3943  0.1015  -1.6771   0.0000   0.4729
   1.000   1.3278   0.01548   0.00790  -0.2743  0.3823  0.2626  -1.8113   0.0000   0.4514
   2.000   1.4375   0.01628   0.00870  -0.2731  0.3737  0.2984  -1.9481   0.0000   0.4330
   3.000   1.5470   0.01713   0.00957  -0.2720  0.3649  0.3368  -2.0921   0.0000   0.4169
   4.000   1.6566   0.01817   0.01070  -0.2711  0.3568  0.3904  -2.2368   0.0000   0.4029
   5.000   1.7625   0.01915   0.01191  -0.2695  0.3499  0.4784  -2.3853   0.0000   0.3903
   6.000   1.8655   0.02062   0.01333  -0.2676  0.3407  0.5000  -2.5455   0.0000   0.3788
   7.000   1.9554   0.02182   0.01471  -0.2630  0.3345  0.5000  -2.7074   0.0000   0.3679
   8.000   2.0423   0.02335   0.01630  -0.2582  0.3263  0.5000  -2.8835   0.0000   0.3577
   9.000   2.1262   0.02514   0.01828  -0.2531  0.3181  0.5000  -3.0802   0.0000   0.3482
  10.000   2.1993   0.02708   0.02041  -0.2464  0.3091  0.5000  -3.2918   0.0000   0.3389
  11.000   2.2664   0.02952   0.02309  -0.2392  0.2990  0.5000  -3.5642   0.0000   0.3301
  12.000   2.3216   0.03258   0.02634  -0.2307  0.2861  0.5000  -3.8532   0.0000   0.3216
  13.000   2.3714   0.03629   0.03033  -0.2224  0.2726  0.5000  -4.1503   0.0000   0.3135
  14.000   2.4130   0.04120   0.03554  -0.2144  0.2576  0.5000  -4.4468   0.0000   0.3060
  15.000   2.4329   0.04865   0.04325  -0.2059  0.2390  0.5000  -4.7073   0.0000   0.2990
  16.000   2.4333   0.05929   0.05423  -0.1986  0.2178  0.5000  -4.9236   0.0000   0.2932
  17.000   2.3774   0.07908   0.07434  -0.1942  0.1942  0.5000  -4.9995   0.0000   0.2901


