xflr5 v6.10.03

 Calculated polar for: S1223 MOD2015 FLAP

 1 1 Reynolds number fixed          Mach number fixed         

 xtrf =   0.500 (top)        0.500 (bottom)
 Mach =   0.000     Re =     0.800 e 6     Ncrit =   9.000

  alpha     CL        CD       CDp       Cm    Top Xtr Bot Xtr   Cpmin    Chinge    XCp    
 ------- -------- --------- --------- -------- ------- ------- -------- --------- ---------
  -5.000   0.9824   0.05303   0.04780  -0.2576  0.4529  0.0238  -1.7915   0.0097   0.5162
  -4.000   1.2561   0.06237   0.05669  -0.2879  0.4165  0.0269  -1.6070   0.0119   0.4804
  -3.000   1.4993   0.07262   0.06691  -0.3111  0.3924  0.1954  -1.8524   0.0136   0.4562
  -2.000   1.6117   0.07505   0.06928  -0.3109  0.3791  0.2579  -1.9934   0.0138   0.4394
  -1.000   1.7118   0.07675   0.07089  -0.3086  0.3686  0.2851  -2.1294   0.0139   0.4245
   0.000   1.8093   0.07833   0.07245  -0.3059  0.3595  0.3059  -2.2726   0.0141   0.4111
   1.000   1.9033   0.07989   0.07404  -0.3028  0.3517  0.3345  -2.4170   0.0142   0.3989
   2.000   1.9945   0.08133   0.07545  -0.2992  0.3423  0.3700  -2.5588   0.0144   0.3876
   3.000   2.0812   0.08289   0.07718  -0.2951  0.3368  0.4107  -2.7077   0.0145   0.3771
   4.000   2.1620   0.08447   0.07885  -0.2902  0.3291  0.4516  -2.8637   0.0146   0.3672
   5.000   2.2382   0.08594   0.08043  -0.2848  0.3206  0.4935  -3.0327   0.0146   0.3579
   6.000   2.3077   0.08803   0.08270  -0.2787  0.3129  0.5000  -3.2174   0.0147   0.3489
   7.000   2.3656   0.09078   0.08554  -0.2712  0.3027  0.5000  -3.4119   0.0149   0.3402
   9.000   2.4678   0.09730   0.09246  -0.2557  0.2796  0.5000  -3.9716   0.0151   0.3239
  10.000   2.5033   0.10186   0.09720  -0.2471  0.2664  0.5000  -4.2521   0.0152   0.3161
  11.000   2.5319   0.10706   0.10258  -0.2387  0.2482  0.5000  -4.5376   0.0154   0.3087
  12.000   2.5303   0.11563   0.11124  -0.2296  0.2191  0.5000  -4.7615   0.0157   0.3019
  13.000   2.4997   0.12775   0.12346  -0.2222  0.1850  0.5000  -4.9122   0.0160   0.2965
  14.000   2.4459   0.14319   0.13909  -0.2195  0.1580  0.5000  -4.9879   0.0165   0.2934
  15.000   2.3894   0.15944   0.15560  -0.2219  0.1372  0.5000  -5.0409   0.0170   0.2926
  16.000   2.3256   0.17704   0.17343  -0.2285  0.1186  0.5000  -5.0516   0.0176   0.2938
  17.000   2.2797   0.19212   0.18870  -0.2359  0.1017  0.5000  -5.1022   0.0181   0.2948


