xflr5 v6.10.03

 Calculated polar for: S1223 MOD2015

 1 1 Reynolds number fixed          Mach number fixed         

 xtrf =   0.500 (top)        0.500 (bottom)
 Mach =   0.000     Re =     0.860 e 6     Ncrit =   9.000

  alpha     CL        CD       CDp       Cm    Top Xtr Bot Xtr   Cpmin    Chinge    XCp    
 ------- -------- --------- --------- -------- ------- ------- -------- --------- ---------
  -5.000   0.5378   0.01487   0.00897  -0.2508  0.4962  0.0165  -3.8266   0.0000   0.7271
  -4.000   0.7008   0.01337   0.00687  -0.2627  0.4556  0.0178  -2.9499   0.0000   0.6311
  -3.000   0.8405   0.01298   0.00613  -0.2683  0.4272  0.0187  -2.2044   0.0000   0.5725
  -2.000   0.9725   0.01293   0.00579  -0.2720  0.4046  0.0195  -1.6172   0.0000   0.5305
  -1.000   1.0990   0.01305   0.00573  -0.2744  0.3891  0.0214  -1.5523   0.0000   0.4984
   0.000   1.2182   0.01343   0.00598  -0.2752  0.3759  0.0271  -1.6843   0.0000   0.4726
   1.000   1.3463   0.01368   0.00662  -0.2784  0.3656  0.2274  -1.8261   0.0000   0.4516
   2.000   1.4537   0.01441   0.00737  -0.2768  0.3570  0.2765  -1.9619   0.0000   0.4334
   3.000   1.5616   0.01508   0.00811  -0.2754  0.3498  0.3155  -2.1056   0.0000   0.4175
   4.000   1.6653   0.01615   0.00919  -0.2734  0.3407  0.3631  -2.2461   0.0000   0.4034
   5.000   1.7694   0.01692   0.01018  -0.2715  0.3360  0.4378  -2.3912   0.0000   0.3908
   6.000   1.8679   0.01795   0.01133  -0.2687  0.3287  0.5000  -2.5479   0.0000   0.3792
   7.000   1.9604   0.01931   0.01271  -0.2649  0.3208  0.5000  -2.7106   0.0000   0.3685
   8.000   2.0498   0.02046   0.01400  -0.2606  0.3143  0.5000  -2.8890   0.0000   0.3584
   9.000   2.1313   0.02226   0.01584  -0.2553  0.3042  0.5000  -3.0832   0.0000   0.3489
  10.000   2.2140   0.02360   0.01741  -0.2503  0.2969  0.5000  -3.3078   0.0000   0.3399
  11.000   2.2859   0.02571   0.01964  -0.2439  0.2852  0.5000  -3.5947   0.0000   0.3313
  12.000   2.3516   0.02822   0.02228  -0.2370  0.2712  0.5000  -3.9049   0.0000   0.3230
  13.000   2.4136   0.03115   0.02541  -0.2302  0.2574  0.5000  -4.2249   0.0000   0.3151
  14.000   2.4589   0.03552   0.02993  -0.2219  0.2381  0.5000  -4.5363   0.0000   0.3074
  15.000   2.4760   0.04279   0.03727  -0.2120  0.2072  0.5000  -4.7939   0.0000   0.3001
  16.000   2.4509   0.05560   0.05016  -0.2017  0.1722  0.5000  -4.9560   0.0000   0.2939
  17.000   2.3914   0.07558   0.07044  -0.1961  0.1490  0.5000  -5.0275   0.0000   0.2906


