XFLR5 v6.09.06

 Calculated polar for: S1223 MOD2015

 1 1 Reynolds number fixed          Mach number fixed         

 xtrf =   1.000 (top)        1.000 (bottom)
 Mach =   0.080     Re =     0.360 e 6     Ncrit =   9.000

  alpha     CL        CD       CDp       Cm    Top Xtr Bot Xtr   Cpmin    Chinge    XCp    
 ------- -------- --------- --------- -------- ------- ------- -------- --------- ---------
 -10.000   0.0157   0.13047   0.12772  -0.0708  0.9663  0.0205  -1.2004   0.0000   5.2047
  -9.500   0.0460   0.12418   0.12145  -0.0753  0.9590  0.0211  -1.1542   0.0000   2.0354
  -9.000   0.0766   0.11770   0.11499  -0.0802  0.9515  0.0220  -1.1456   0.0000   1.3845
  -8.500   0.1130   0.10987   0.10715  -0.0890  0.9465  0.0234  -1.2639   0.0000   1.0945
  -8.000   0.1372   0.10300   0.10031  -0.0932  0.9353  0.0238  -1.3389   0.0000   0.9741
  -7.500   0.1595   0.09817   0.09552  -0.0933  0.9179  0.0246  -1.2375   0.0000   0.8702
  -7.000   0.1775   0.09303   0.09040  -0.0941  0.8951  0.0262  -1.2409   0.0000   0.8098
  -6.500   0.2017   0.08584   0.08319  -0.0996  0.8654  0.0278  -1.3802   0.0000   0.7681
  -6.000   0.3262   0.07279   0.06964  -0.1311  0.7937  0.0320  -1.3517   0.0000   0.6675
  -5.000   0.3201   0.06666   0.06241  -0.1271  0.5926  0.0363  -1.4970   0.0000   0.6593
  -4.500   0.3323   0.06481   0.06037  -0.1216  0.5537  0.0370  -1.3126   0.0000   0.6257
  -4.000   0.3406   0.06202   0.05748  -0.1188  0.5296  0.0386  -1.2418   0.0000   0.6065
  -3.500   0.3521   0.05499   0.05044  -0.1250  0.5141  0.0419  -1.4085   0.0000   0.6112
  -3.000   0.3792   0.05210   0.04748  -0.1250  0.4972  0.0438  -1.2609   0.0000   0.5840
  -2.500   0.8492   0.01633   0.00849  -0.2579  0.4685  0.0302  -1.8850   0.0000   0.5558
  -2.000   0.9231   0.01620   0.00817  -0.2616  0.4555  0.0322  -1.5720   0.0000   0.5343
  -1.500   0.9954   0.01623   0.00801  -0.2649  0.4433  0.0339  -1.4494   0.0000   0.5159
  -1.000   1.0650   0.01630   0.00795  -0.2674  0.4338  0.0367  -1.5195   0.0000   0.4998
  -0.500   1.1326   0.01647   0.00799  -0.2695  0.4253  0.0461  -1.5892   0.0000   0.4857
   0.000   1.2098   0.01660   0.00846  -0.2740  0.4175  0.2280  -1.6660   0.0000   0.4733
   0.500   1.2635   0.01704   0.00892  -0.2731  0.4109  0.2682  -1.7279   0.0000   0.4620
   1.000   1.3196   0.01752   0.00933  -0.2727  0.4048  0.2906  -1.7950   0.0000   0.4515
   1.500   1.3812   0.01817   0.00986  -0.2735  0.3988  0.3128  -1.8657   0.0000   0.4420
   2.000   1.4376   0.01852   0.01026  -0.2733  0.3946  0.3293  -1.9369   0.0000   0.4332
   2.500   1.4938   0.01892   0.01067  -0.2730  0.3894  0.3465  -2.0088   0.0000   0.4249
   3.000   1.5509   0.01942   0.01115  -0.2730  0.3846  0.3683  -2.0821   0.0000   0.4172
   3.500   1.6175   0.02019   0.01187  -0.2751  0.3793  0.3974  -2.1625   0.0000   0.4104
   4.000   1.6688   0.02063   0.01247  -0.2739  0.3757  0.4319  -2.2313   0.0000   0.4035
   4.500   1.7230   0.02116   0.01316  -0.2734  0.3715  0.4785  -2.3059   0.0000   0.3971
   5.000   1.7785   0.02175   0.01388  -0.2732  0.3675  0.5390  -2.3869   0.0000   0.3910
   5.500   1.8364   0.02244   0.01470  -0.2735  0.3631  0.6268  -2.4722   0.0000   0.3854
   6.000   1.8963   0.02321   0.01576  -0.2743  0.3586  0.7978  -2.5623   0.0000   0.3801
   7.000   1.9737   0.02432   0.01712  -0.2671  0.3508  1.0000  -2.7129   0.0000   0.3688
   7.500   2.0187   0.02509   0.01789  -0.2650  0.3465  1.0000  -2.8028   0.0000   0.3637
   8.000   2.0778   0.02621   0.01890  -0.2659  0.3411  1.0000  -2.9109   0.0000   0.3593
   8.500   2.1095   0.02708   0.01997  -0.2612  0.3376  1.0000  -2.9972   0.0000   0.3541
   9.000   2.1448   0.02802   0.02106  -0.2574  0.3330  1.0000  -3.0883   0.0000   0.3492
   9.500   2.1812   0.02897   0.02207  -0.2538  0.3283  1.0000  -3.1911   0.0000   0.3445
  10.000   2.2306   0.03014   0.02318  -0.2530  0.3224  1.0000  -3.3214   0.0000   0.3404
  10.500   2.2516   0.03145   0.02477  -0.2468  0.3186  1.0000  -3.4340   0.0000   0.3355
  11.000   2.2747   0.03279   0.02629  -0.2413  0.3130  1.0000  -3.5663   0.0000   0.3308
  11.500   2.3019   0.03415   0.02772  -0.2367  0.3076  1.0000  -3.7076   0.0000   0.3263
  12.000   2.3263   0.03593   0.02966  -0.2320  0.3019  1.0000  -3.8486   0.0000   0.3220
  12.500   2.3383   0.03799   0.03196  -0.2256  0.2952  1.0000  -3.9727   0.0000   0.3176
  13.000   2.3561   0.04009   0.03410  -0.2206  0.2884  1.0000  -4.1092   0.0000   0.3134
  13.500   2.3651   0.04298   0.03729  -0.2149  0.2815  1.0000  -4.2278   0.0000   0.3094
  14.000   2.3760   0.04601   0.04048  -0.2100  0.2745  1.0000  -4.3570   0.0000   0.3056
  14.500   2.3839   0.04970   0.04437  -0.2055  0.2672  1.0000  -4.4808   0.0000   0.3021
  15.000   2.3868   0.05409   0.04896  -0.2012  0.2588  1.0000  -4.5940   0.0000   0.2988
  15.500   2.3842   0.05949   0.05458  -0.1975  0.2498  1.0000  -4.6938   0.0000   0.2959
  16.000   2.3719   0.06645   0.06165  -0.1943  0.2398  1.0000  -4.7703   0.0000   0.2935
  16.500   2.3543   0.07483   0.07032  -0.1923  0.2291  1.0000  -4.8302   0.0000   0.2917
  17.000   2.3255   0.08538   0.08108  -0.1916  0.2182  1.0000  -4.8589   0.0000   0.2909


