xflr5 v6.10.03

 Calculated polar for: S1223 MOD2015 FLAP

 1 1 Reynolds number fixed          Mach number fixed         

 xtrf =   0.500 (top)        0.500 (bottom)
 Mach =   0.000     Re =     0.180 e 6     Ncrit =   9.000

  alpha     CL        CD       CDp       Cm    Top Xtr Bot Xtr   Cpmin    Chinge    XCp    
 ------- -------- --------- --------- -------- ------- ------- -------- --------- ---------
  -5.000   0.2515   0.08475   0.08007  -0.0636  0.5000  0.0663  -0.9469  -0.0003   0.5038
  -4.000   0.2941   0.07640   0.07179  -0.0667  0.5000  0.0733  -0.9911   0.0001   0.4753
  -3.000   0.4077   0.06445   0.05980  -0.0876  0.5000  0.0903  -1.0749   0.0012   0.4619
  -1.000   1.4960   0.05569   0.04864  -0.2686  0.4671  0.3413  -1.9000   0.0101   0.4245
   0.000   1.7185   0.06047   0.05288  -0.2877  0.4481  0.3840  -2.1424   0.0111   0.4104
   1.000   1.8255   0.06281   0.05534  -0.2868  0.4346  0.4110  -2.2859   0.0115   0.3980
   2.000   1.9556   0.06465   0.05715  -0.2897  0.4230  0.4509  -2.4599   0.0117   0.3869
   3.000   2.0473   0.06699   0.05970  -0.2865  0.4117  0.4906  -2.6106   0.0120   0.3765
   4.000   2.1912   0.07141   0.06419  -0.2923  0.3997  0.5000  -2.8345   0.0126   0.3677
   5.000   2.2816   0.07503   0.06804  -0.2894  0.3879  0.5000  -3.0215   0.0130   0.3587
   6.000   2.3412   0.07907   0.07248  -0.2822  0.3766  0.5000  -3.1942   0.0133   0.3500
   7.000   2.4082   0.08150   0.07510  -0.2761  0.3649  0.5000  -3.4101   0.0135   0.3416
   8.000   2.4009   0.08910   0.08340  -0.2610  0.3521  0.5000  -3.5768   0.0141   0.3328
   9.000   2.4502   0.09201   0.08653  -0.2536  0.3398  0.5000  -3.8592   0.0143   0.3249
  10.000   2.4462   0.09857   0.09355  -0.2410  0.3257  0.5000  -4.0574   0.0147   0.3168
  11.000   2.3858   0.11160   0.10730  -0.2270  0.3102  0.5000  -4.1332   0.0153   0.3099
  12.000   2.3369   0.12557   0.12181  -0.2192  0.2936  0.5000  -4.2244   0.0158   0.3049
  13.000   2.2641   0.14494   0.14173  -0.2182  0.2744  0.5000  -4.2364   0.0165   0.3034
  14.000   2.2474   0.15698   0.15406  -0.2193  0.2549  0.5000  -4.3756   0.0169   0.3008
  15.000   2.2700   0.16260   0.15978  -0.2183  0.2362  0.5000  -4.6213   0.0170   0.2958
  16.000   2.1765   0.18672   0.18432  -0.2318  0.2075  0.5000  -4.4970   0.0178   0.3017
  17.000   2.1974   0.19156   0.18918  -0.2323  0.1864  0.5000  -4.7422   0.0180   0.2971


