xflr5 v6.10.03

 Calculated polar for: S1223 MOD2015

 1 1 Reynolds number fixed          Mach number fixed         

 xtrf =   0.500 (top)        0.500 (bottom)
 Mach =   0.000     Re =     0.800 e 6     Ncrit =   9.000

  alpha     CL        CD       CDp       Cm    Top Xtr Bot Xtr   Cpmin    Chinge    XCp    
 ------- -------- --------- --------- -------- ------- ------- -------- --------- ---------
  -5.000   0.5222   0.01567   0.00976  -0.2469  0.5000  0.0168  -3.8307   0.0000   0.7338
  -4.000   0.6918   0.01374   0.00720  -0.2606  0.4601  0.0183  -2.9576   0.0000   0.6330
  -3.000   0.8336   0.01325   0.00635  -0.2667  0.4316  0.0193  -2.2019   0.0000   0.5733
  -2.000   0.9663   0.01318   0.00598  -0.2707  0.4088  0.0200  -1.6180   0.0000   0.5309
  -1.000   1.0948   0.01328   0.00589  -0.2736  0.3924  0.0223  -1.5485   0.0000   0.4985
   0.000   1.2143   0.01371   0.00615  -0.2744  0.3781  0.0290  -1.6803   0.0000   0.4727
   1.000   1.3425   0.01391   0.00678  -0.2776  0.3689  0.2322  -1.8222   0.0000   0.4516
   2.000   1.4493   0.01475   0.00760  -0.2759  0.3589  0.2793  -1.9572   0.0000   0.4333
   3.000   1.5576   0.01539   0.00833  -0.2746  0.3524  0.3185  -2.1008   0.0000   0.4174
   4.000   1.6622   0.01635   0.00932  -0.2728  0.3439  0.3678  -2.2426   0.0000   0.4034
   5.000   1.7658   0.01732   0.01048  -0.2709  0.3380  0.4444  -2.3865   0.0000   0.3907
   6.000   1.8647   0.01829   0.01160  -0.2681  0.3310  0.5000  -2.5435   0.0000   0.3792
   7.000   1.9567   0.01981   0.01309  -0.2643  0.3221  0.5000  -2.7056   0.0000   0.3684
   8.000   2.0456   0.02093   0.01439  -0.2599  0.3162  0.5000  -2.8832   0.0000   0.3583
   9.000   2.1276   0.02255   0.01608  -0.2546  0.3072  0.5000  -3.0782   0.0000   0.3488
  10.000   2.2080   0.02419   0.01792  -0.2493  0.2990  0.5000  -3.2986   0.0000   0.3398
  11.000   2.2772   0.02646   0.02029  -0.2425  0.2871  0.5000  -3.5791   0.0000   0.3311
  12.000   2.3467   0.02866   0.02270  -0.2362  0.2744  0.5000  -3.8950   0.0000   0.3228
  13.000   2.4073   0.03170   0.02595  -0.2292  0.2608  0.5000  -4.2120   0.0000   0.3149
  14.000   2.4514   0.03617   0.03058  -0.2209  0.2423  0.5000  -4.5197   0.0000   0.3073
  15.000   2.4756   0.04282   0.03737  -0.2118  0.2164  0.5000  -4.7914   0.0000   0.3000
  16.000   2.4503   0.05561   0.05023  -0.2015  0.1818  0.5000  -4.9533   0.0000   0.2939
  17.000   2.3897   0.07570   0.07060  -0.1959  0.1556  0.5000  -5.0222   0.0000   0.2905


