xflr5 v6.10.03

 Calculated polar for: S1223 MOD2015

 1 1 Reynolds number fixed          Mach number fixed         

 xtrf =   0.500 (top)        0.500 (bottom)
 Mach =   0.080     Re =     0.580 e 6     Ncrit =   9.000

  alpha     CL        CD       CDp       Cm    Top Xtr Bot Xtr   Cpmin    Chinge    XCp    
 ------- -------- --------- --------- -------- ------- ------- -------- --------- ---------
  -5.000   0.3094   0.06500   0.06072  -0.1230  0.5000  0.0239  -1.6310   0.0000   0.6602
  -4.000   0.3289   0.05876   0.05457  -0.1193  0.4893  0.0264  -1.4710   0.0000   0.6212
  -3.000   0.4220   0.03823   0.03391  -0.1524  0.4647  0.0324  -1.8111   0.0000   0.6157
  -2.000   0.9456   0.01437   0.00685  -0.2663  0.4249  0.0236  -1.6237   0.0000   0.5324
  -1.000   1.0799   0.01443   0.00666  -0.2704  0.4068  0.0267  -1.5390   0.0000   0.4991
   0.000   1.2098   0.01470   0.00692  -0.2735  0.3927  0.0820  -1.6773   0.0000   0.4728
   2.000   1.4389   0.01609   0.00858  -0.2734  0.3723  0.2967  -1.9501   0.0000   0.4330
   3.000   1.5481   0.01702   0.00949  -0.2722  0.3631  0.3348  -2.0937   0.0000   0.4170
   4.000   1.6568   0.01797   0.01055  -0.2711  0.3556  0.3877  -2.2380   0.0000   0.4029
   5.000   1.7623   0.01896   0.01176  -0.2694  0.3486  0.4743  -2.3861   0.0000   0.3902
   6.000   1.8641   0.02039   0.01318  -0.2672  0.3400  0.5000  -2.5450   0.0000   0.3788
   7.000   1.9550   0.02160   0.01454  -0.2629  0.3333  0.5000  -2.7079   0.0000   0.3678
   8.000   2.0431   0.02321   0.01618  -0.2584  0.3247  0.5000  -2.8851   0.0000   0.3577
   9.000   2.1258   0.02488   0.01809  -0.2530  0.3170  0.5000  -3.0806   0.0000   0.3482
  10.000   2.1995   0.02687   0.02022  -0.2464  0.3079  0.5000  -3.2928   0.0000   0.3389
  11.000   2.2674   0.02922   0.02285  -0.2393  0.2979  0.5000  -3.5665   0.0000   0.3301
  12.000   2.3240   0.03222   0.02604  -0.2310  0.2850  0.5000  -3.8582   0.0000   0.3216
  13.000   2.3731   0.03606   0.03010  -0.2227  0.2712  0.5000  -4.1543   0.0000   0.3135
  14.000   2.4152   0.04093   0.03526  -0.2147  0.2561  0.5000  -4.4522   0.0000   0.3060
  15.000   2.4395   0.04797   0.04260  -0.2065  0.2375  0.5000  -4.7225   0.0000   0.2991
  16.000   2.4380   0.05875   0.05368  -0.1990  0.2157  0.5000  -4.9352   0.0000   0.2932
  17.000   2.3850   0.07807   0.07333  -0.1943  0.1919  0.5000  -5.0196   0.0000   0.2900


