xflr5 v6.10.03

 Calculated polar for: S1223 MOD2015

 1 1 Reynolds number fixed          Mach number fixed         

 xtrf =   0.500 (top)        0.500 (bottom)
 Mach =   0.080     Re =     0.880 e 6     Ncrit =   9.000

  alpha     CL        CD       CDp       Cm    Top Xtr Bot Xtr   Cpmin    Chinge    XCp    
 ------- -------- --------- --------- -------- ------- ------- -------- --------- ---------
  -5.000   0.5360   0.01492   0.00908  -0.2510  0.4921  0.0163  -3.8679   0.0000   0.7290
  -4.000   0.7019   0.01337   0.00689  -0.2633  0.4527  0.0176  -2.9811   0.0000   0.6314
  -3.000   0.8426   0.01298   0.00614  -0.2690  0.4242  0.0185  -2.2253   0.0000   0.5725
  -2.000   0.9753   0.01294   0.00581  -0.2727  0.4016  0.0192  -1.6311   0.0000   0.5304
  -1.000   1.1021   0.01306   0.00576  -0.2750  0.3870  0.0210  -1.5602   0.0000   0.4982
   0.000   1.2223   0.01341   0.00600  -0.2759  0.3745  0.0265  -1.6934   0.0000   0.4724
   1.000   1.3506   0.01371   0.00666  -0.2790  0.3635  0.2244  -1.8359   0.0000   0.4514
   2.000   1.4593   0.01438   0.00740  -0.2775  0.3558  0.2753  -1.9737   0.0000   0.4331
   3.000   1.5672   0.01510   0.00816  -0.2760  0.3483  0.3135  -2.1181   0.0000   0.4172
   4.000   1.6716   0.01612   0.00922  -0.2739  0.3401  0.3611  -2.2602   0.0000   0.4031
   5.000   1.7757   0.01694   0.01024  -0.2719  0.3348  0.4336  -2.4061   0.0000   0.3904
   6.000   1.8744   0.01805   0.01145  -0.2690  0.3271  0.5000  -2.5638   0.0000   0.3789
   7.000   1.9679   0.01933   0.01280  -0.2652  0.3200  0.5000  -2.7286   0.0000   0.3681
   8.000   2.0576   0.02054   0.01412  -0.2608  0.3130  0.5000  -2.9085   0.0000   0.3580
   9.000   2.1397   0.02232   0.01597  -0.2553  0.3036  0.5000  -3.1047   0.0000   0.3484
  10.000   2.2225   0.02375   0.01761  -0.2502  0.2955  0.5000  -3.3305   0.0000   0.3394
  11.000   2.2956   0.02585   0.01984  -0.2438  0.2838  0.5000  -3.6208   0.0000   0.3307
  12.000   2.3616   0.02845   0.02257  -0.2368  0.2699  0.5000  -3.9343   0.0000   0.3224
  13.000   2.4203   0.03171   0.02600  -0.2294  0.2548  0.5000  -4.2513   0.0000   0.3144
  14.000   2.4678   0.03605   0.03052  -0.2213  0.2353  0.5000  -4.5697   0.0000   0.3068
  15.000   2.4804   0.04390   0.03843  -0.2110  0.2033  0.5000  -4.8203   0.0000   0.2995
  16.000   2.4472   0.05797   0.05259  -0.2008  0.1689  0.5000  -4.9654   0.0000   0.2936
  17.000   2.3824   0.07929   0.07424  -0.1962  0.1464  0.5000  -5.0214   0.0000   0.2908


